
---------- Begin Simulation Statistics ----------
sim_seconds                                 10.807811                       # Number of seconds simulated
sim_ticks                                10807810838500                       # Number of ticks simulated
final_tick                               10807810838500                       # Number of ticks from beginning of simulation (restored from checkpoints and never reset)
sim_freq                                 1000000000000                       # Frequency of simulated ticks
host_inst_rate                                 373585                       # Simulator instruction rate (inst/s)
host_op_rate                                   747169                       # Simulator op (including micro ops) rate (op/s)
host_tick_rate                              996230544                       # Simulator tick rate (ticks/s)
host_mem_usage                                4819792                       # Number of bytes of host memory used
host_seconds                                 10848.70                       # Real time elapsed on the host
sim_insts                                  4052909925                       # Number of instructions simulated
sim_ops                                    8105819915                       # Number of ops (including micro ops) simulated
system.voltage_domain.voltage                       1                       # Voltage in Volts
system.clk_domain.clock                          1000                       # Clock period in ticks
system.mem_ctrls.bytes_read::ruby.dir_cntrl0        30976                       # Number of bytes read from this memory
system.mem_ctrls.bytes_read::total              30976                       # Number of bytes read from this memory
system.mem_ctrls.bytes_written::ruby.dir_cntrl0         3456                       # Number of bytes written to this memory
system.mem_ctrls.bytes_written::total            3456                       # Number of bytes written to this memory
system.mem_ctrls.num_reads::ruby.dir_cntrl0          484                       # Number of read requests responded to by this memory
system.mem_ctrls.num_reads::total                 484                       # Number of read requests responded to by this memory
system.mem_ctrls.num_writes::ruby.dir_cntrl0           54                       # Number of write requests responded to by this memory
system.mem_ctrls.num_writes::total                 54                       # Number of write requests responded to by this memory
system.mem_ctrls.bw_read::ruby.dir_cntrl0         2866                       # Total read bandwidth from this memory (bytes/s)
system.mem_ctrls.bw_read::total                  2866                       # Total read bandwidth from this memory (bytes/s)
system.mem_ctrls.bw_write::ruby.dir_cntrl0          320                       # Write bandwidth from this memory (bytes/s)
system.mem_ctrls.bw_write::total                  320                       # Write bandwidth from this memory (bytes/s)
system.mem_ctrls.bw_total::ruby.dir_cntrl0         3186                       # Total bandwidth to/from this memory (bytes/s)
system.mem_ctrls.bw_total::total                 3186                       # Total bandwidth to/from this memory (bytes/s)
system.cpu_voltage_domain.voltage                   1                       # Voltage in Volts
system.cpu_clk_domain.clock                       500                       # Clock period in ticks
system.cpu0.apic_clk_domain.clock                8000                       # Clock period in ticks
system.cpu0.workload.num_syscalls                   8                       # Number of system calls
system.cpu0.numCycles                     21615621674                       # number of cpu cycles simulated
system.cpu0.numWorkItemsStarted                     0                       # number of work items this cpu started
system.cpu0.numWorkItemsCompleted                   0                       # number of work items this cpu completed
system.cpu0.committedInsts                 4052909925                       # Number of instructions committed
system.cpu0.committedOps                   8105819915                       # Number of ops (including micro ops) committed
system.cpu0.num_int_alu_accesses           8105819663                       # Number of integer alu accesses
system.cpu0.num_fp_alu_accesses                   451                       # Number of float alu accesses
system.cpu0.num_func_calls                        180                       # number of times a function call or return occured
system.cpu0.num_conditional_control_insts   1350969098                       # number of instructions that are conditional controls
system.cpu0.num_int_insts                  8105819663                       # number of integer instructions
system.cpu0.num_fp_insts                          451                       # number of float instructions
system.cpu0.num_int_register_reads        12158733040                       # number of times the integer registers were read
system.cpu0.num_int_register_writes        6754849202                       # number of times the integer registers were written
system.cpu0.num_fp_register_reads                 639                       # number of times the floating registers were read
system.cpu0.num_fp_register_writes                239                       # number of times the floating registers were written
system.cpu0.num_cc_register_reads          6754847159                       # number of times the CC registers were read
system.cpu0.num_cc_register_writes         2701939899                       # number of times the CC registers were written
system.cpu0.num_mem_refs                   1350970265                       # number of memory refs
system.cpu0.num_load_insts                 1350969200                       # Number of load instructions
system.cpu0.num_store_insts                      1065                       # Number of store instructions
system.cpu0.num_idle_cycles                         0                       # Number of idle cycles
system.cpu0.num_busy_cycles               21615621674                       # Number of busy cycles
system.cpu0.not_idle_fraction                       1                       # Percentage of non-idle cycles
system.cpu0.idle_fraction                           0                       # Percentage of idle cycles
system.cpu0.Branches                       1350969375                       # Number of branches fetched
system.cpu0.op_class::No_OpClass                   33      0.00%      0.00% # Class of executed instruction
system.cpu0.op_class::IntAlu               6754849369     83.33%     83.33% # Class of executed instruction
system.cpu0.op_class::IntMult                       5      0.00%     83.33% # Class of executed instruction
system.cpu0.op_class::IntDiv                        7      0.00%     83.33% # Class of executed instruction
system.cpu0.op_class::FloatAdd                    236      0.00%     83.33% # Class of executed instruction
system.cpu0.op_class::FloatCmp                      0      0.00%     83.33% # Class of executed instruction
system.cpu0.op_class::FloatCvt                      0      0.00%     83.33% # Class of executed instruction
system.cpu0.op_class::FloatMult                     0      0.00%     83.33% # Class of executed instruction
system.cpu0.op_class::FloatDiv                      0      0.00%     83.33% # Class of executed instruction
system.cpu0.op_class::FloatSqrt                     0      0.00%     83.33% # Class of executed instruction
system.cpu0.op_class::SimdAdd                       0      0.00%     83.33% # Class of executed instruction
system.cpu0.op_class::SimdAddAcc                    0      0.00%     83.33% # Class of executed instruction
system.cpu0.op_class::SimdAlu                       0      0.00%     83.33% # Class of executed instruction
system.cpu0.op_class::SimdCmp                       0      0.00%     83.33% # Class of executed instruction
system.cpu0.op_class::SimdCvt                       0      0.00%     83.33% # Class of executed instruction
system.cpu0.op_class::SimdMisc                      0      0.00%     83.33% # Class of executed instruction
system.cpu0.op_class::SimdMult                      0      0.00%     83.33% # Class of executed instruction
system.cpu0.op_class::SimdMultAcc                   0      0.00%     83.33% # Class of executed instruction
system.cpu0.op_class::SimdShift                     0      0.00%     83.33% # Class of executed instruction
system.cpu0.op_class::SimdShiftAcc                  0      0.00%     83.33% # Class of executed instruction
system.cpu0.op_class::SimdSqrt                      0      0.00%     83.33% # Class of executed instruction
system.cpu0.op_class::SimdFloatAdd                  0      0.00%     83.33% # Class of executed instruction
system.cpu0.op_class::SimdFloatAlu                  0      0.00%     83.33% # Class of executed instruction
system.cpu0.op_class::SimdFloatCmp                  0      0.00%     83.33% # Class of executed instruction
system.cpu0.op_class::SimdFloatCvt                  0      0.00%     83.33% # Class of executed instruction
system.cpu0.op_class::SimdFloatDiv                  0      0.00%     83.33% # Class of executed instruction
system.cpu0.op_class::SimdFloatMisc                 0      0.00%     83.33% # Class of executed instruction
system.cpu0.op_class::SimdFloatMult                 0      0.00%     83.33% # Class of executed instruction
system.cpu0.op_class::SimdFloatMultAcc              0      0.00%     83.33% # Class of executed instruction
system.cpu0.op_class::SimdFloatSqrt                 0      0.00%     83.33% # Class of executed instruction
system.cpu0.op_class::MemRead              1350969200     16.67%    100.00% # Class of executed instruction
system.cpu0.op_class::MemWrite                   1065      0.00%    100.00% # Class of executed instruction
system.cpu0.op_class::IprAccess                     0      0.00%    100.00% # Class of executed instruction
system.cpu0.op_class::InstPrefetch                  0      0.00%    100.00% # Class of executed instruction
system.cpu0.op_class::total                8105819915                       # Class of executed instruction
system.cpu1.apic_clk_domain.clock                8000                       # Clock period in ticks
system.cpu1.numCycles                               0                       # number of cpu cycles simulated
system.cpu1.numWorkItemsStarted                     0                       # number of work items this cpu started
system.cpu1.numWorkItemsCompleted                   0                       # number of work items this cpu completed
system.cpu1.committedInsts                          0                       # Number of instructions committed
system.cpu1.committedOps                            0                       # Number of ops (including micro ops) committed
system.cpu1.num_int_alu_accesses                    0                       # Number of integer alu accesses
system.cpu1.num_fp_alu_accesses                     0                       # Number of float alu accesses
system.cpu1.num_func_calls                          0                       # number of times a function call or return occured
system.cpu1.num_conditional_control_insts            0                       # number of instructions that are conditional controls
system.cpu1.num_int_insts                           0                       # number of integer instructions
system.cpu1.num_fp_insts                            0                       # number of float instructions
system.cpu1.num_int_register_reads                  0                       # number of times the integer registers were read
system.cpu1.num_int_register_writes                 0                       # number of times the integer registers were written
system.cpu1.num_fp_register_reads                   0                       # number of times the floating registers were read
system.cpu1.num_fp_register_writes                  0                       # number of times the floating registers were written
system.cpu1.num_mem_refs                            0                       # number of memory refs
system.cpu1.num_load_insts                          0                       # Number of load instructions
system.cpu1.num_store_insts                         0                       # Number of store instructions
system.cpu1.num_idle_cycles                         0                       # Number of idle cycles
system.cpu1.num_busy_cycles                         0                       # Number of busy cycles
system.cpu1.not_idle_fraction                       0                       # Percentage of non-idle cycles
system.cpu1.idle_fraction                           1                       # Percentage of idle cycles
system.cpu1.op_class::No_OpClass                    0                       # Class of executed instruction
system.cpu1.op_class::IntAlu                        0                       # Class of executed instruction
system.cpu1.op_class::IntMult                       0                       # Class of executed instruction
system.cpu1.op_class::IntDiv                        0                       # Class of executed instruction
system.cpu1.op_class::FloatAdd                      0                       # Class of executed instruction
system.cpu1.op_class::FloatCmp                      0                       # Class of executed instruction
system.cpu1.op_class::FloatCvt                      0                       # Class of executed instruction
system.cpu1.op_class::FloatMult                     0                       # Class of executed instruction
system.cpu1.op_class::FloatDiv                      0                       # Class of executed instruction
system.cpu1.op_class::FloatSqrt                     0                       # Class of executed instruction
system.cpu1.op_class::SimdAdd                       0                       # Class of executed instruction
system.cpu1.op_class::SimdAddAcc                    0                       # Class of executed instruction
system.cpu1.op_class::SimdAlu                       0                       # Class of executed instruction
system.cpu1.op_class::SimdCmp                       0                       # Class of executed instruction
system.cpu1.op_class::SimdCvt                       0                       # Class of executed instruction
system.cpu1.op_class::SimdMisc                      0                       # Class of executed instruction
system.cpu1.op_class::SimdMult                      0                       # Class of executed instruction
system.cpu1.op_class::SimdMultAcc                   0                       # Class of executed instruction
system.cpu1.op_class::SimdShift                     0                       # Class of executed instruction
system.cpu1.op_class::SimdShiftAcc                  0                       # Class of executed instruction
system.cpu1.op_class::SimdSqrt                      0                       # Class of executed instruction
system.cpu1.op_class::SimdFloatAdd                  0                       # Class of executed instruction
system.cpu1.op_class::SimdFloatAlu                  0                       # Class of executed instruction
system.cpu1.op_class::SimdFloatCmp                  0                       # Class of executed instruction
system.cpu1.op_class::SimdFloatCvt                  0                       # Class of executed instruction
system.cpu1.op_class::SimdFloatDiv                  0                       # Class of executed instruction
system.cpu1.op_class::SimdFloatMisc                 0                       # Class of executed instruction
system.cpu1.op_class::SimdFloatMult                 0                       # Class of executed instruction
system.cpu1.op_class::SimdFloatMultAcc              0                       # Class of executed instruction
system.cpu1.op_class::SimdFloatSqrt                 0                       # Class of executed instruction
system.cpu1.op_class::MemRead                       0                       # Class of executed instruction
system.cpu1.op_class::MemWrite                      0                       # Class of executed instruction
system.cpu1.op_class::IprAccess                     0                       # Class of executed instruction
system.cpu1.op_class::InstPrefetch                  0                       # Class of executed instruction
system.cpu1.op_class::total                         0                       # Class of executed instruction
system.cpu2.apic_clk_domain.clock                8000                       # Clock period in ticks
system.cpu2.numCycles                               0                       # number of cpu cycles simulated
system.cpu2.numWorkItemsStarted                     0                       # number of work items this cpu started
system.cpu2.numWorkItemsCompleted                   0                       # number of work items this cpu completed
system.cpu2.committedInsts                          0                       # Number of instructions committed
system.cpu2.committedOps                            0                       # Number of ops (including micro ops) committed
system.cpu2.num_int_alu_accesses                    0                       # Number of integer alu accesses
system.cpu2.num_fp_alu_accesses                     0                       # Number of float alu accesses
system.cpu2.num_func_calls                          0                       # number of times a function call or return occured
system.cpu2.num_conditional_control_insts            0                       # number of instructions that are conditional controls
system.cpu2.num_int_insts                           0                       # number of integer instructions
system.cpu2.num_fp_insts                            0                       # number of float instructions
system.cpu2.num_int_register_reads                  0                       # number of times the integer registers were read
system.cpu2.num_int_register_writes                 0                       # number of times the integer registers were written
system.cpu2.num_fp_register_reads                   0                       # number of times the floating registers were read
system.cpu2.num_fp_register_writes                  0                       # number of times the floating registers were written
system.cpu2.num_mem_refs                            0                       # number of memory refs
system.cpu2.num_load_insts                          0                       # Number of load instructions
system.cpu2.num_store_insts                         0                       # Number of store instructions
system.cpu2.num_idle_cycles                         0                       # Number of idle cycles
system.cpu2.num_busy_cycles                         0                       # Number of busy cycles
system.cpu2.not_idle_fraction                       0                       # Percentage of non-idle cycles
system.cpu2.idle_fraction                           1                       # Percentage of idle cycles
system.cpu2.op_class::No_OpClass                    0                       # Class of executed instruction
system.cpu2.op_class::IntAlu                        0                       # Class of executed instruction
system.cpu2.op_class::IntMult                       0                       # Class of executed instruction
system.cpu2.op_class::IntDiv                        0                       # Class of executed instruction
system.cpu2.op_class::FloatAdd                      0                       # Class of executed instruction
system.cpu2.op_class::FloatCmp                      0                       # Class of executed instruction
system.cpu2.op_class::FloatCvt                      0                       # Class of executed instruction
system.cpu2.op_class::FloatMult                     0                       # Class of executed instruction
system.cpu2.op_class::FloatDiv                      0                       # Class of executed instruction
system.cpu2.op_class::FloatSqrt                     0                       # Class of executed instruction
system.cpu2.op_class::SimdAdd                       0                       # Class of executed instruction
system.cpu2.op_class::SimdAddAcc                    0                       # Class of executed instruction
system.cpu2.op_class::SimdAlu                       0                       # Class of executed instruction
system.cpu2.op_class::SimdCmp                       0                       # Class of executed instruction
system.cpu2.op_class::SimdCvt                       0                       # Class of executed instruction
system.cpu2.op_class::SimdMisc                      0                       # Class of executed instruction
system.cpu2.op_class::SimdMult                      0                       # Class of executed instruction
system.cpu2.op_class::SimdMultAcc                   0                       # Class of executed instruction
system.cpu2.op_class::SimdShift                     0                       # Class of executed instruction
system.cpu2.op_class::SimdShiftAcc                  0                       # Class of executed instruction
system.cpu2.op_class::SimdSqrt                      0                       # Class of executed instruction
system.cpu2.op_class::SimdFloatAdd                  0                       # Class of executed instruction
system.cpu2.op_class::SimdFloatAlu                  0                       # Class of executed instruction
system.cpu2.op_class::SimdFloatCmp                  0                       # Class of executed instruction
system.cpu2.op_class::SimdFloatCvt                  0                       # Class of executed instruction
system.cpu2.op_class::SimdFloatDiv                  0                       # Class of executed instruction
system.cpu2.op_class::SimdFloatMisc                 0                       # Class of executed instruction
system.cpu2.op_class::SimdFloatMult                 0                       # Class of executed instruction
system.cpu2.op_class::SimdFloatMultAcc              0                       # Class of executed instruction
system.cpu2.op_class::SimdFloatSqrt                 0                       # Class of executed instruction
system.cpu2.op_class::MemRead                       0                       # Class of executed instruction
system.cpu2.op_class::MemWrite                      0                       # Class of executed instruction
system.cpu2.op_class::IprAccess                     0                       # Class of executed instruction
system.cpu2.op_class::InstPrefetch                  0                       # Class of executed instruction
system.cpu2.op_class::total                         0                       # Class of executed instruction
system.cpu3.apic_clk_domain.clock                8000                       # Clock period in ticks
system.cpu3.numCycles                               0                       # number of cpu cycles simulated
system.cpu3.numWorkItemsStarted                     0                       # number of work items this cpu started
system.cpu3.numWorkItemsCompleted                   0                       # number of work items this cpu completed
system.cpu3.committedInsts                          0                       # Number of instructions committed
system.cpu3.committedOps                            0                       # Number of ops (including micro ops) committed
system.cpu3.num_int_alu_accesses                    0                       # Number of integer alu accesses
system.cpu3.num_fp_alu_accesses                     0                       # Number of float alu accesses
system.cpu3.num_func_calls                          0                       # number of times a function call or return occured
system.cpu3.num_conditional_control_insts            0                       # number of instructions that are conditional controls
system.cpu3.num_int_insts                           0                       # number of integer instructions
system.cpu3.num_fp_insts                            0                       # number of float instructions
system.cpu3.num_int_register_reads                  0                       # number of times the integer registers were read
system.cpu3.num_int_register_writes                 0                       # number of times the integer registers were written
system.cpu3.num_fp_register_reads                   0                       # number of times the floating registers were read
system.cpu3.num_fp_register_writes                  0                       # number of times the floating registers were written
system.cpu3.num_mem_refs                            0                       # number of memory refs
system.cpu3.num_load_insts                          0                       # Number of load instructions
system.cpu3.num_store_insts                         0                       # Number of store instructions
system.cpu3.num_idle_cycles                         0                       # Number of idle cycles
system.cpu3.num_busy_cycles                         0                       # Number of busy cycles
system.cpu3.not_idle_fraction                       0                       # Percentage of non-idle cycles
system.cpu3.idle_fraction                           1                       # Percentage of idle cycles
system.cpu3.op_class::No_OpClass                    0                       # Class of executed instruction
system.cpu3.op_class::IntAlu                        0                       # Class of executed instruction
system.cpu3.op_class::IntMult                       0                       # Class of executed instruction
system.cpu3.op_class::IntDiv                        0                       # Class of executed instruction
system.cpu3.op_class::FloatAdd                      0                       # Class of executed instruction
system.cpu3.op_class::FloatCmp                      0                       # Class of executed instruction
system.cpu3.op_class::FloatCvt                      0                       # Class of executed instruction
system.cpu3.op_class::FloatMult                     0                       # Class of executed instruction
system.cpu3.op_class::FloatDiv                      0                       # Class of executed instruction
system.cpu3.op_class::FloatSqrt                     0                       # Class of executed instruction
system.cpu3.op_class::SimdAdd                       0                       # Class of executed instruction
system.cpu3.op_class::SimdAddAcc                    0                       # Class of executed instruction
system.cpu3.op_class::SimdAlu                       0                       # Class of executed instruction
system.cpu3.op_class::SimdCmp                       0                       # Class of executed instruction
system.cpu3.op_class::SimdCvt                       0                       # Class of executed instruction
system.cpu3.op_class::SimdMisc                      0                       # Class of executed instruction
system.cpu3.op_class::SimdMult                      0                       # Class of executed instruction
system.cpu3.op_class::SimdMultAcc                   0                       # Class of executed instruction
system.cpu3.op_class::SimdShift                     0                       # Class of executed instruction
system.cpu3.op_class::SimdShiftAcc                  0                       # Class of executed instruction
system.cpu3.op_class::SimdSqrt                      0                       # Class of executed instruction
system.cpu3.op_class::SimdFloatAdd                  0                       # Class of executed instruction
system.cpu3.op_class::SimdFloatAlu                  0                       # Class of executed instruction
system.cpu3.op_class::SimdFloatCmp                  0                       # Class of executed instruction
system.cpu3.op_class::SimdFloatCvt                  0                       # Class of executed instruction
system.cpu3.op_class::SimdFloatDiv                  0                       # Class of executed instruction
system.cpu3.op_class::SimdFloatMisc                 0                       # Class of executed instruction
system.cpu3.op_class::SimdFloatMult                 0                       # Class of executed instruction
system.cpu3.op_class::SimdFloatMultAcc              0                       # Class of executed instruction
system.cpu3.op_class::SimdFloatSqrt                 0                       # Class of executed instruction
system.cpu3.op_class::MemRead                       0                       # Class of executed instruction
system.cpu3.op_class::MemWrite                      0                       # Class of executed instruction
system.cpu3.op_class::IprAccess                     0                       # Class of executed instruction
system.cpu3.op_class::InstPrefetch                  0                       # Class of executed instruction
system.cpu3.op_class::total                         0                       # Class of executed instruction
system.ruby.clk_domain.clock                      500                       # Clock period in ticks
system.ruby.delayHist::bucket_size              16384                       # delay histogram for all message
system.ruby.delayHist::max_bucket              163839                       # delay histogram for all message
system.ruby.delayHist::samples                   2822                       # delay histogram for all message
system.ruby.delayHist::mean              64106.583629                       # delay histogram for all message
system.ruby.delayHist::gmean             46680.619353                       # delay histogram for all message
system.ruby.delayHist::stdev             37471.719392                       # delay histogram for all message
system.ruby.delayHist                    |         379     13.43%     13.43% |         400     14.17%     27.60% |         250      8.86%     36.46% |         385     13.64%     50.11% |         399     14.14%     64.25% |         354     12.54%     76.79% |         345     12.23%     89.01% |         310     10.99%    100.00% |           0      0.00%    100.00% |           0      0.00%    100.00% # delay histogram for all message
system.ruby.delayHist::total                     2822                       # delay histogram for all message
system.ruby.outstanding_req_hist::bucket_size            1                      
system.ruby.outstanding_req_hist::max_bucket            9                      
system.ruby.outstanding_req_hist::samples   5403881822                      
system.ruby.outstanding_req_hist::mean              1                      
system.ruby.outstanding_req_hist::gmean             1                      
system.ruby.outstanding_req_hist::stdev           nan                      
system.ruby.outstanding_req_hist         |           0      0.00%      0.00% |  5403881822    100.00%    100.00% |           0      0.00%    100.00% |           0      0.00%    100.00% |           0      0.00%    100.00% |           0      0.00%    100.00% |           0      0.00%    100.00% |           0      0.00%    100.00% |           0      0.00%    100.00% |           0      0.00%    100.00%
system.ruby.outstanding_req_hist::total    5403881822                      
system.ruby.latency_hist::bucket_size              64                      
system.ruby.latency_hist::max_bucket              639                      
system.ruby.latency_hist::samples          5403881822                      
system.ruby.latency_hist::mean               3.000017                      
system.ruby.latency_hist::gmean              3.000001                      
system.ruby.latency_hist::stdev              0.061102                      
system.ruby.latency_hist                 |  5403881318    100.00%    100.00% |          58      0.00%    100.00% |         290      0.00%    100.00% |         102      0.00%    100.00% |           7      0.00%    100.00% |          28      0.00%    100.00% |          19      0.00%    100.00% |           0      0.00%    100.00% |           0      0.00%    100.00% |           0      0.00%    100.00%
system.ruby.latency_hist::total            5403881822                      
system.ruby.hit_latency_hist::bucket_size           64                      
system.ruby.hit_latency_hist::max_bucket          639                      
system.ruby.hit_latency_hist::samples             482                      
system.ruby.hit_latency_hist::mean         189.892116                      
system.ruby.hit_latency_hist::gmean        177.918575                      
system.ruby.hit_latency_hist::stdev         73.841551                      
system.ruby.hit_latency_hist             |           5      1.04%      1.04% |          54     11.20%     12.24% |         270     56.02%     68.26% |         100     20.75%     89.00% |           7      1.45%     90.46% |          27      5.60%     96.06% |          19      3.94%    100.00% |           0      0.00%    100.00% |           0      0.00%    100.00% |           0      0.00%    100.00%
system.ruby.hit_latency_hist::total               482                      
system.ruby.miss_latency_hist::bucket_size           64                      
system.ruby.miss_latency_hist::max_bucket          639                      
system.ruby.miss_latency_hist::samples     5403881340                      
system.ruby.miss_latency_hist::mean          3.000001                      
system.ruby.miss_latency_hist::gmean         3.000000                      
system.ruby.miss_latency_hist::stdev         0.011516                      
system.ruby.miss_latency_hist            |  5403881313    100.00%    100.00% |           4      0.00%    100.00% |          20      0.00%    100.00% |           2      0.00%    100.00% |           0      0.00%    100.00% |           1      0.00%    100.00% |           0      0.00%    100.00% |           0      0.00%    100.00% |           0      0.00%    100.00% |           0      0.00%    100.00%
system.ruby.miss_latency_hist::total       5403881340                      
system.ruby.l1_cntrl0.Dcache.demand_hits   1350970045                       # Number of cache demand hits
system.ruby.l1_cntrl0.Dcache.demand_misses          198                       # Number of cache demand misses
system.ruby.l1_cntrl0.Dcache.invalid_hits            0                       # Number of invalid  hits
system.ruby.l1_cntrl0.Dcache.actual_misses            0                       # Number of actual misses; not read from SVC
system.ruby.l1_cntrl0.Dcache.stale_hits             0                       # Number of stale value hits
system.ruby.l1_cntrl0.Dcache.approx_loads            0                       # Number of approx loads
system.ruby.l1_cntrl0.Dcache.approx_stores            0                       # Number of approx stores
system.ruby.l1_cntrl0.Dcache.approx_load_hits            0                       # Number of approx load hits
system.ruby.l1_cntrl0.Dcache.approx_store_hits            0                       # Number of approx store hits
system.ruby.l1_cntrl0.Dcache.approx_load_misses            0                       # Number of approx load misses
system.ruby.l1_cntrl0.Dcache.approx_store_misses            0                       # Number of approx store misses
system.ruby.l1_cntrl0.Dcache.loads                  0                       # Number of loads
system.ruby.l1_cntrl0.Dcache.stores                 0                       # Number of stores
system.ruby.l1_cntrl0.Dcache.load_hits              0                       # Number of load hits
system.ruby.l1_cntrl0.Dcache.store_hits             0                       # Number of store hits
system.ruby.l1_cntrl0.Dcache.load_misses            0                       # Number of  load misses
system.ruby.l1_cntrl0.Dcache.store_misses            0                       # Number of store misses
system.ruby.l1_cntrl0.Dcache.demand_accesses   1350970243                       # Number of cache demand accesses
system.ruby.l1_cntrl0.Icache.demand_hits   4052911266                       # Number of cache demand hits
system.ruby.l1_cntrl0.Icache.demand_misses          287                       # Number of cache demand misses
system.ruby.l1_cntrl0.Icache.invalid_hits            0                       # Number of invalid  hits
system.ruby.l1_cntrl0.Icache.actual_misses            0                       # Number of actual misses; not read from SVC
system.ruby.l1_cntrl0.Icache.stale_hits             0                       # Number of stale value hits
system.ruby.l1_cntrl0.Icache.approx_loads            0                       # Number of approx loads
system.ruby.l1_cntrl0.Icache.approx_stores            0                       # Number of approx stores
system.ruby.l1_cntrl0.Icache.approx_load_hits            0                       # Number of approx load hits
system.ruby.l1_cntrl0.Icache.approx_store_hits            0                       # Number of approx store hits
system.ruby.l1_cntrl0.Icache.approx_load_misses            0                       # Number of approx load misses
system.ruby.l1_cntrl0.Icache.approx_store_misses            0                       # Number of approx store misses
system.ruby.l1_cntrl0.Icache.loads                  0                       # Number of loads
system.ruby.l1_cntrl0.Icache.stores                 0                       # Number of stores
system.ruby.l1_cntrl0.Icache.load_hits              0                       # Number of load hits
system.ruby.l1_cntrl0.Icache.store_hits             0                       # Number of store hits
system.ruby.l1_cntrl0.Icache.load_misses            0                       # Number of  load misses
system.ruby.l1_cntrl0.Icache.store_misses            0                       # Number of store misses
system.ruby.l1_cntrl0.Icache.demand_accesses   4052911553                       # Number of cache demand accesses
system.ruby.l1_cntrl0.sequencer.ifetch     4052911553                       # Number of ifetch
system.ruby.l1_cntrl0.sequencer.loads      1350969179                       # Number of loads
system.ruby.l1_cntrl0.sequencer.stores           1064                       # Number of loads
system.ruby.l1_cntrl0.sequencer.approx_loads            0                       # Number of approx loads
system.ruby.l1_cntrl0.sequencer.approx_stores            0                       # Number of approx stores
system.ruby.l1_cntrl0.sequencer.coherence_inv            0                       # Number of coherence invs
system.ruby.l1_cntrl0.sequencer.approx_coherence_inv            0                       # Number of approx coherence invs
system.ruby.l1_cntrl0.sequencer.coherence_inv_approx            0                       # Number of coherence invs of approximate data
system.ruby.l1_cntrl0.sequencer.Istate_othergetM            0                       # Number of times othergetM is sent to an entry in I state. So no invalidations
system.ruby.l1_cntrl0.sequencer.m_0_01_count            0                       # Number of coherence invs
system.ruby.l1_cntrl0.sequencer.m_0_1_count            0                       # Number of coherence invs
system.ruby.l1_cntrl0.sequencer.m_1_count            0                       # Number of coherence invs
system.ruby.l1_cntrl0.sequencer.m_5_count            0                       # Number of coherence invs
system.ruby.l1_cntrl0.sequencer.m_10_count            0                       # Number of coherence invs
system.ruby.l1_cntrl0.sequencer.m_greater_count            0                       # Number of coherence invs with error >= 10
system.ruby.l1_cntrl0.sequencer.m_old_value_zero            0                       # Number of times old vale is zero, so no error percent calculated
system.ruby.l1_cntrl0.sequencer.m_intermediate_state_diff_check            0                       # Number of times when inv is sent to entries in SM_AD,SM_D,SM_DS - diff_check done with value in cache entry
system.ruby.l1_cntrl0.sequencer.m_I_state_no_diff_check            0                       # Number of times when inv is sent to entries in IS_D,IM_D,IM_DS - no diff_check done
system.ruby.l1_cntrl0.sequencer.invdata_bit_set            0                       # Number of cache lines whose invdata bit is set
system.ruby.l1_cntrl0.sequencer.svc_allocated            0                       # Number of svc blocks allocated
system.ruby.l1_cntrl0.sequencer.svc_deallocated_avail            0                       # Number of svc blocks deallocated because svc is full
system.ruby.l1_cntrl0.sequencer.svc_deallocated_timeout            0                       # Number of svc blocks deallocated due to timeout
system.ruby.l1_cntrl0.sequencer.svc_deallocated            0                       # Number of svc blocks deallocated
system.ruby.l1_cntrl0.sequencer.avg_time_between_mem            0                       # Average time between requests to the same mem location
system.ruby.l1_cntrl1.Dcache.demand_hits            0                       # Number of cache demand hits
system.ruby.l1_cntrl1.Dcache.demand_misses            0                       # Number of cache demand misses
system.ruby.l1_cntrl1.Dcache.invalid_hits            0                       # Number of invalid  hits
system.ruby.l1_cntrl1.Dcache.actual_misses            0                       # Number of actual misses; not read from SVC
system.ruby.l1_cntrl1.Dcache.stale_hits             0                       # Number of stale value hits
system.ruby.l1_cntrl1.Dcache.approx_loads            0                       # Number of approx loads
system.ruby.l1_cntrl1.Dcache.approx_stores            0                       # Number of approx stores
system.ruby.l1_cntrl1.Dcache.approx_load_hits            0                       # Number of approx load hits
system.ruby.l1_cntrl1.Dcache.approx_store_hits            0                       # Number of approx store hits
system.ruby.l1_cntrl1.Dcache.approx_load_misses            0                       # Number of approx load misses
system.ruby.l1_cntrl1.Dcache.approx_store_misses            0                       # Number of approx store misses
system.ruby.l1_cntrl1.Dcache.loads                  0                       # Number of loads
system.ruby.l1_cntrl1.Dcache.stores                 0                       # Number of stores
system.ruby.l1_cntrl1.Dcache.load_hits              0                       # Number of load hits
system.ruby.l1_cntrl1.Dcache.store_hits             0                       # Number of store hits
system.ruby.l1_cntrl1.Dcache.load_misses            0                       # Number of  load misses
system.ruby.l1_cntrl1.Dcache.store_misses            0                       # Number of store misses
system.ruby.l1_cntrl1.Dcache.demand_accesses            0                       # Number of cache demand accesses
system.ruby.l1_cntrl1.Icache.demand_hits            0                       # Number of cache demand hits
system.ruby.l1_cntrl1.Icache.demand_misses            0                       # Number of cache demand misses
system.ruby.l1_cntrl1.Icache.invalid_hits            0                       # Number of invalid  hits
system.ruby.l1_cntrl1.Icache.actual_misses            0                       # Number of actual misses; not read from SVC
system.ruby.l1_cntrl1.Icache.stale_hits             0                       # Number of stale value hits
system.ruby.l1_cntrl1.Icache.approx_loads            0                       # Number of approx loads
system.ruby.l1_cntrl1.Icache.approx_stores            0                       # Number of approx stores
system.ruby.l1_cntrl1.Icache.approx_load_hits            0                       # Number of approx load hits
system.ruby.l1_cntrl1.Icache.approx_store_hits            0                       # Number of approx store hits
system.ruby.l1_cntrl1.Icache.approx_load_misses            0                       # Number of approx load misses
system.ruby.l1_cntrl1.Icache.approx_store_misses            0                       # Number of approx store misses
system.ruby.l1_cntrl1.Icache.loads                  0                       # Number of loads
system.ruby.l1_cntrl1.Icache.stores                 0                       # Number of stores
system.ruby.l1_cntrl1.Icache.load_hits              0                       # Number of load hits
system.ruby.l1_cntrl1.Icache.store_hits             0                       # Number of store hits
system.ruby.l1_cntrl1.Icache.load_misses            0                       # Number of  load misses
system.ruby.l1_cntrl1.Icache.store_misses            0                       # Number of store misses
system.ruby.l1_cntrl1.Icache.demand_accesses            0                       # Number of cache demand accesses
system.ruby.l1_cntrl1.sequencer.ifetch              0                       # Number of ifetch
system.ruby.l1_cntrl1.sequencer.loads               0                       # Number of loads
system.ruby.l1_cntrl1.sequencer.stores              0                       # Number of loads
system.ruby.l1_cntrl1.sequencer.approx_loads            0                       # Number of approx loads
system.ruby.l1_cntrl1.sequencer.approx_stores            0                       # Number of approx stores
system.ruby.l1_cntrl1.sequencer.coherence_inv            0                       # Number of coherence invs
system.ruby.l1_cntrl1.sequencer.approx_coherence_inv            0                       # Number of approx coherence invs
system.ruby.l1_cntrl1.sequencer.coherence_inv_approx            0                       # Number of coherence invs of approximate data
system.ruby.l1_cntrl1.sequencer.Istate_othergetM          110                       # Number of times othergetM is sent to an entry in I state. So no invalidations
system.ruby.l1_cntrl1.sequencer.m_0_01_count            0                       # Number of coherence invs
system.ruby.l1_cntrl1.sequencer.m_0_1_count            0                       # Number of coherence invs
system.ruby.l1_cntrl1.sequencer.m_1_count            0                       # Number of coherence invs
system.ruby.l1_cntrl1.sequencer.m_5_count            0                       # Number of coherence invs
system.ruby.l1_cntrl1.sequencer.m_10_count            0                       # Number of coherence invs
system.ruby.l1_cntrl1.sequencer.m_greater_count            0                       # Number of coherence invs with error >= 10
system.ruby.l1_cntrl1.sequencer.m_old_value_zero            0                       # Number of times old vale is zero, so no error percent calculated
system.ruby.l1_cntrl1.sequencer.m_intermediate_state_diff_check            0                       # Number of times when inv is sent to entries in SM_AD,SM_D,SM_DS - diff_check done with value in cache entry
system.ruby.l1_cntrl1.sequencer.m_I_state_no_diff_check            0                       # Number of times when inv is sent to entries in IS_D,IM_D,IM_DS - no diff_check done
system.ruby.l1_cntrl1.sequencer.invdata_bit_set            0                       # Number of cache lines whose invdata bit is set
system.ruby.l1_cntrl1.sequencer.svc_allocated            0                       # Number of svc blocks allocated
system.ruby.l1_cntrl1.sequencer.svc_deallocated_avail            0                       # Number of svc blocks deallocated because svc is full
system.ruby.l1_cntrl1.sequencer.svc_deallocated_timeout            0                       # Number of svc blocks deallocated due to timeout
system.ruby.l1_cntrl1.sequencer.svc_deallocated            0                       # Number of svc blocks deallocated
system.ruby.l1_cntrl1.sequencer.avg_time_between_mem            0                       # Average time between requests to the same mem location
system.ruby.l1_cntrl2.Dcache.demand_hits            0                       # Number of cache demand hits
system.ruby.l1_cntrl2.Dcache.demand_misses            0                       # Number of cache demand misses
system.ruby.l1_cntrl2.Dcache.invalid_hits            0                       # Number of invalid  hits
system.ruby.l1_cntrl2.Dcache.actual_misses            0                       # Number of actual misses; not read from SVC
system.ruby.l1_cntrl2.Dcache.stale_hits             0                       # Number of stale value hits
system.ruby.l1_cntrl2.Dcache.approx_loads            0                       # Number of approx loads
system.ruby.l1_cntrl2.Dcache.approx_stores            0                       # Number of approx stores
system.ruby.l1_cntrl2.Dcache.approx_load_hits            0                       # Number of approx load hits
system.ruby.l1_cntrl2.Dcache.approx_store_hits            0                       # Number of approx store hits
system.ruby.l1_cntrl2.Dcache.approx_load_misses            0                       # Number of approx load misses
system.ruby.l1_cntrl2.Dcache.approx_store_misses            0                       # Number of approx store misses
system.ruby.l1_cntrl2.Dcache.loads                  0                       # Number of loads
system.ruby.l1_cntrl2.Dcache.stores                 0                       # Number of stores
system.ruby.l1_cntrl2.Dcache.load_hits              0                       # Number of load hits
system.ruby.l1_cntrl2.Dcache.store_hits             0                       # Number of store hits
system.ruby.l1_cntrl2.Dcache.load_misses            0                       # Number of  load misses
system.ruby.l1_cntrl2.Dcache.store_misses            0                       # Number of store misses
system.ruby.l1_cntrl2.Dcache.demand_accesses            0                       # Number of cache demand accesses
system.ruby.l1_cntrl2.Icache.demand_hits            0                       # Number of cache demand hits
system.ruby.l1_cntrl2.Icache.demand_misses            0                       # Number of cache demand misses
system.ruby.l1_cntrl2.Icache.invalid_hits            0                       # Number of invalid  hits
system.ruby.l1_cntrl2.Icache.actual_misses            0                       # Number of actual misses; not read from SVC
system.ruby.l1_cntrl2.Icache.stale_hits             0                       # Number of stale value hits
system.ruby.l1_cntrl2.Icache.approx_loads            0                       # Number of approx loads
system.ruby.l1_cntrl2.Icache.approx_stores            0                       # Number of approx stores
system.ruby.l1_cntrl2.Icache.approx_load_hits            0                       # Number of approx load hits
system.ruby.l1_cntrl2.Icache.approx_store_hits            0                       # Number of approx store hits
system.ruby.l1_cntrl2.Icache.approx_load_misses            0                       # Number of approx load misses
system.ruby.l1_cntrl2.Icache.approx_store_misses            0                       # Number of approx store misses
system.ruby.l1_cntrl2.Icache.loads                  0                       # Number of loads
system.ruby.l1_cntrl2.Icache.stores                 0                       # Number of stores
system.ruby.l1_cntrl2.Icache.load_hits              0                       # Number of load hits
system.ruby.l1_cntrl2.Icache.store_hits             0                       # Number of store hits
system.ruby.l1_cntrl2.Icache.load_misses            0                       # Number of  load misses
system.ruby.l1_cntrl2.Icache.store_misses            0                       # Number of store misses
system.ruby.l1_cntrl2.Icache.demand_accesses            0                       # Number of cache demand accesses
system.ruby.l1_cntrl2.sequencer.ifetch              0                       # Number of ifetch
system.ruby.l1_cntrl2.sequencer.loads               0                       # Number of loads
system.ruby.l1_cntrl2.sequencer.stores              0                       # Number of loads
system.ruby.l1_cntrl2.sequencer.approx_loads            0                       # Number of approx loads
system.ruby.l1_cntrl2.sequencer.approx_stores            0                       # Number of approx stores
system.ruby.l1_cntrl2.sequencer.coherence_inv            0                       # Number of coherence invs
system.ruby.l1_cntrl2.sequencer.approx_coherence_inv            0                       # Number of approx coherence invs
system.ruby.l1_cntrl2.sequencer.coherence_inv_approx            0                       # Number of coherence invs of approximate data
system.ruby.l1_cntrl2.sequencer.Istate_othergetM          110                       # Number of times othergetM is sent to an entry in I state. So no invalidations
system.ruby.l1_cntrl2.sequencer.m_0_01_count            0                       # Number of coherence invs
system.ruby.l1_cntrl2.sequencer.m_0_1_count            0                       # Number of coherence invs
system.ruby.l1_cntrl2.sequencer.m_1_count            0                       # Number of coherence invs
system.ruby.l1_cntrl2.sequencer.m_5_count            0                       # Number of coherence invs
system.ruby.l1_cntrl2.sequencer.m_10_count            0                       # Number of coherence invs
system.ruby.l1_cntrl2.sequencer.m_greater_count            0                       # Number of coherence invs with error >= 10
system.ruby.l1_cntrl2.sequencer.m_old_value_zero            0                       # Number of times old vale is zero, so no error percent calculated
system.ruby.l1_cntrl2.sequencer.m_intermediate_state_diff_check            0                       # Number of times when inv is sent to entries in SM_AD,SM_D,SM_DS - diff_check done with value in cache entry
system.ruby.l1_cntrl2.sequencer.m_I_state_no_diff_check            0                       # Number of times when inv is sent to entries in IS_D,IM_D,IM_DS - no diff_check done
system.ruby.l1_cntrl2.sequencer.invdata_bit_set            0                       # Number of cache lines whose invdata bit is set
system.ruby.l1_cntrl2.sequencer.svc_allocated            0                       # Number of svc blocks allocated
system.ruby.l1_cntrl2.sequencer.svc_deallocated_avail            0                       # Number of svc blocks deallocated because svc is full
system.ruby.l1_cntrl2.sequencer.svc_deallocated_timeout            0                       # Number of svc blocks deallocated due to timeout
system.ruby.l1_cntrl2.sequencer.svc_deallocated            0                       # Number of svc blocks deallocated
system.ruby.l1_cntrl2.sequencer.avg_time_between_mem            0                       # Average time between requests to the same mem location
system.ruby.l1_cntrl3.Dcache.demand_hits            0                       # Number of cache demand hits
system.ruby.l1_cntrl3.Dcache.demand_misses            0                       # Number of cache demand misses
system.ruby.l1_cntrl3.Dcache.invalid_hits            0                       # Number of invalid  hits
system.ruby.l1_cntrl3.Dcache.actual_misses            0                       # Number of actual misses; not read from SVC
system.ruby.l1_cntrl3.Dcache.stale_hits             0                       # Number of stale value hits
system.ruby.l1_cntrl3.Dcache.approx_loads            0                       # Number of approx loads
system.ruby.l1_cntrl3.Dcache.approx_stores            0                       # Number of approx stores
system.ruby.l1_cntrl3.Dcache.approx_load_hits            0                       # Number of approx load hits
system.ruby.l1_cntrl3.Dcache.approx_store_hits            0                       # Number of approx store hits
system.ruby.l1_cntrl3.Dcache.approx_load_misses            0                       # Number of approx load misses
system.ruby.l1_cntrl3.Dcache.approx_store_misses            0                       # Number of approx store misses
system.ruby.l1_cntrl3.Dcache.loads                  0                       # Number of loads
system.ruby.l1_cntrl3.Dcache.stores                 0                       # Number of stores
system.ruby.l1_cntrl3.Dcache.load_hits              0                       # Number of load hits
system.ruby.l1_cntrl3.Dcache.store_hits             0                       # Number of store hits
system.ruby.l1_cntrl3.Dcache.load_misses            0                       # Number of  load misses
system.ruby.l1_cntrl3.Dcache.store_misses            0                       # Number of store misses
system.ruby.l1_cntrl3.Dcache.demand_accesses            0                       # Number of cache demand accesses
system.ruby.l1_cntrl3.Icache.demand_hits            0                       # Number of cache demand hits
system.ruby.l1_cntrl3.Icache.demand_misses            0                       # Number of cache demand misses
system.ruby.l1_cntrl3.Icache.invalid_hits            0                       # Number of invalid  hits
system.ruby.l1_cntrl3.Icache.actual_misses            0                       # Number of actual misses; not read from SVC
system.ruby.l1_cntrl3.Icache.stale_hits             0                       # Number of stale value hits
system.ruby.l1_cntrl3.Icache.approx_loads            0                       # Number of approx loads
system.ruby.l1_cntrl3.Icache.approx_stores            0                       # Number of approx stores
system.ruby.l1_cntrl3.Icache.approx_load_hits            0                       # Number of approx load hits
system.ruby.l1_cntrl3.Icache.approx_store_hits            0                       # Number of approx store hits
system.ruby.l1_cntrl3.Icache.approx_load_misses            0                       # Number of approx load misses
system.ruby.l1_cntrl3.Icache.approx_store_misses            0                       # Number of approx store misses
system.ruby.l1_cntrl3.Icache.loads                  0                       # Number of loads
system.ruby.l1_cntrl3.Icache.stores                 0                       # Number of stores
system.ruby.l1_cntrl3.Icache.load_hits              0                       # Number of load hits
system.ruby.l1_cntrl3.Icache.store_hits             0                       # Number of store hits
system.ruby.l1_cntrl3.Icache.load_misses            0                       # Number of  load misses
system.ruby.l1_cntrl3.Icache.store_misses            0                       # Number of store misses
system.ruby.l1_cntrl3.Icache.demand_accesses            0                       # Number of cache demand accesses
system.ruby.l1_cntrl3.sequencer.ifetch              0                       # Number of ifetch
system.ruby.l1_cntrl3.sequencer.loads               0                       # Number of loads
system.ruby.l1_cntrl3.sequencer.stores              0                       # Number of loads
system.ruby.l1_cntrl3.sequencer.approx_loads            0                       # Number of approx loads
system.ruby.l1_cntrl3.sequencer.approx_stores            0                       # Number of approx stores
system.ruby.l1_cntrl3.sequencer.coherence_inv            0                       # Number of coherence invs
system.ruby.l1_cntrl3.sequencer.approx_coherence_inv            0                       # Number of approx coherence invs
system.ruby.l1_cntrl3.sequencer.coherence_inv_approx            0                       # Number of coherence invs of approximate data
system.ruby.l1_cntrl3.sequencer.Istate_othergetM          110                       # Number of times othergetM is sent to an entry in I state. So no invalidations
system.ruby.l1_cntrl3.sequencer.m_0_01_count            0                       # Number of coherence invs
system.ruby.l1_cntrl3.sequencer.m_0_1_count            0                       # Number of coherence invs
system.ruby.l1_cntrl3.sequencer.m_1_count            0                       # Number of coherence invs
system.ruby.l1_cntrl3.sequencer.m_5_count            0                       # Number of coherence invs
system.ruby.l1_cntrl3.sequencer.m_10_count            0                       # Number of coherence invs
system.ruby.l1_cntrl3.sequencer.m_greater_count            0                       # Number of coherence invs with error >= 10
system.ruby.l1_cntrl3.sequencer.m_old_value_zero            0                       # Number of times old vale is zero, so no error percent calculated
system.ruby.l1_cntrl3.sequencer.m_intermediate_state_diff_check            0                       # Number of times when inv is sent to entries in SM_AD,SM_D,SM_DS - diff_check done with value in cache entry
system.ruby.l1_cntrl3.sequencer.m_I_state_no_diff_check            0                       # Number of times when inv is sent to entries in IS_D,IM_D,IM_DS - no diff_check done
system.ruby.l1_cntrl3.sequencer.invdata_bit_set            0                       # Number of cache lines whose invdata bit is set
system.ruby.l1_cntrl3.sequencer.svc_allocated            0                       # Number of svc blocks allocated
system.ruby.l1_cntrl3.sequencer.svc_deallocated_avail            0                       # Number of svc blocks deallocated because svc is full
system.ruby.l1_cntrl3.sequencer.svc_deallocated_timeout            0                       # Number of svc blocks deallocated due to timeout
system.ruby.l1_cntrl3.sequencer.svc_deallocated            0                       # Number of svc blocks deallocated
system.ruby.l1_cntrl3.sequencer.avg_time_between_mem            0                       # Average time between requests to the same mem location
system.ruby.memctrl_clk_domain.clock             1500                       # Clock period in ticks
system.ruby.network.routers0.percent_links_utilized     0.000006                      
system.ruby.network.routers0.msg_count.Control::2         1022                      
system.ruby.network.routers0.msg_count.Control::4           54                      
system.ruby.network.routers0.msg_count.Control::5           26                      
system.ruby.network.routers0.msg_count.Control::6          108                      
system.ruby.network.routers0.msg_count.Response_Data::4          484                      
system.ruby.network.routers0.msg_bytes.Control::2         8176                      
system.ruby.network.routers0.msg_bytes.Control::4          432                      
system.ruby.network.routers0.msg_bytes.Control::5          208                      
system.ruby.network.routers0.msg_bytes.Control::6          864                      
system.ruby.network.routers0.msg_bytes.Response_Data::4        34848                      
system.ruby.network.routers1.percent_links_utilized     0.000001                      
system.ruby.network.routers1.msg_count.Control::2          511                      
system.ruby.network.routers1.msg_count.Control::5           26                      
system.ruby.network.routers1.msg_count.Control::6           54                      
system.ruby.network.routers1.msg_bytes.Control::2         4088                      
system.ruby.network.routers1.msg_bytes.Control::5          208                      
system.ruby.network.routers1.msg_bytes.Control::6          432                      
system.ruby.network.routers2.percent_links_utilized     0.000001                      
system.ruby.network.routers2.msg_count.Control::2          511                      
system.ruby.network.routers2.msg_count.Control::5           26                      
system.ruby.network.routers2.msg_count.Control::6           54                      
system.ruby.network.routers2.msg_bytes.Control::2         4088                      
system.ruby.network.routers2.msg_bytes.Control::5          208                      
system.ruby.network.routers2.msg_bytes.Control::6          432                      
system.ruby.network.routers3.percent_links_utilized     0.000001                      
system.ruby.network.routers3.msg_count.Control::2          511                      
system.ruby.network.routers3.msg_count.Control::5           26                      
system.ruby.network.routers3.msg_count.Control::6           54                      
system.ruby.network.routers3.msg_bytes.Control::2         4088                      
system.ruby.network.routers3.msg_bytes.Control::5          208                      
system.ruby.network.routers3.msg_bytes.Control::6          432                      
system.ruby.network.routers4.percent_links_utilized     0.000002                      
system.ruby.network.routers4.msg_count.Control::2          511                      
system.ruby.network.routers4.msg_count.Control::4           54                      
system.ruby.network.routers4.msg_count.Control::6           54                      
system.ruby.network.routers4.msg_count.Response_Data::4          484                      
system.ruby.network.routers4.msg_bytes.Control::2         4088                      
system.ruby.network.routers4.msg_bytes.Control::4          432                      
system.ruby.network.routers4.msg_bytes.Control::6          432                      
system.ruby.network.routers4.msg_bytes.Response_Data::4        34848                      
system.ruby.network.routers5.percent_links_utilized     0.000003                      
system.ruby.network.routers5.msg_count.Control::2         2555                      
system.ruby.network.routers5.msg_count.Control::4           54                      
system.ruby.network.routers5.msg_count.Control::5           78                      
system.ruby.network.routers5.msg_count.Control::6          270                      
system.ruby.network.routers5.msg_count.Response_Data::4          484                      
system.ruby.network.routers5.msg_bytes.Control::2        20440                      
system.ruby.network.routers5.msg_bytes.Control::4          432                      
system.ruby.network.routers5.msg_bytes.Control::5          624                      
system.ruby.network.routers5.msg_bytes.Control::6         2160                      
system.ruby.network.routers5.msg_bytes.Response_Data::4        34848                      
system.ruby.network.msg_count.Control            6559                      
system.ruby.network.msg_count.Response_Data         1452                      
system.ruby.network.msg_byte.Control            52472                      
system.ruby.network.msg_byte.Response_Data       104544                      
system.ruby.network.routers0.throttle0.link_utilization     0.000011                      
system.ruby.network.routers0.throttle0.msg_count.Control::2          511                      
system.ruby.network.routers0.throttle0.msg_count.Control::6           54                      
system.ruby.network.routers0.throttle0.msg_count.Response_Data::4          484                      
system.ruby.network.routers0.throttle0.msg_bytes.Control::2         4088                      
system.ruby.network.routers0.throttle0.msg_bytes.Control::6          432                      
system.ruby.network.routers0.throttle0.msg_bytes.Response_Data::4        34848                      
system.ruby.network.routers0.throttle1.link_utilization     0.000001                      
system.ruby.network.routers0.throttle1.msg_count.Control::2          511                      
system.ruby.network.routers0.throttle1.msg_count.Control::4           54                      
system.ruby.network.routers0.throttle1.msg_count.Control::5           26                      
system.ruby.network.routers0.throttle1.msg_count.Control::6           54                      
system.ruby.network.routers0.throttle1.msg_bytes.Control::2         4088                      
system.ruby.network.routers0.throttle1.msg_bytes.Control::4          432                      
system.ruby.network.routers0.throttle1.msg_bytes.Control::5          208                      
system.ruby.network.routers0.throttle1.msg_bytes.Control::6          432                      
system.ruby.network.routers1.throttle0.link_utilization     0.000001                      
system.ruby.network.routers1.throttle0.msg_count.Control::2          511                      
system.ruby.network.routers1.throttle0.msg_count.Control::5           26                      
system.ruby.network.routers1.throttle0.msg_count.Control::6           54                      
system.ruby.network.routers1.throttle0.msg_bytes.Control::2         4088                      
system.ruby.network.routers1.throttle0.msg_bytes.Control::5          208                      
system.ruby.network.routers1.throttle0.msg_bytes.Control::6          432                      
system.ruby.network.routers1.throttle1.link_utilization            0                      
system.ruby.network.routers2.throttle0.link_utilization     0.000001                      
system.ruby.network.routers2.throttle0.msg_count.Control::2          511                      
system.ruby.network.routers2.throttle0.msg_count.Control::5           26                      
system.ruby.network.routers2.throttle0.msg_count.Control::6           54                      
system.ruby.network.routers2.throttle0.msg_bytes.Control::2         4088                      
system.ruby.network.routers2.throttle0.msg_bytes.Control::5          208                      
system.ruby.network.routers2.throttle0.msg_bytes.Control::6          432                      
system.ruby.network.routers2.throttle1.link_utilization            0                      
system.ruby.network.routers3.throttle0.link_utilization     0.000001                      
system.ruby.network.routers3.throttle0.msg_count.Control::2          511                      
system.ruby.network.routers3.throttle0.msg_count.Control::5           26                      
system.ruby.network.routers3.throttle0.msg_count.Control::6           54                      
system.ruby.network.routers3.throttle0.msg_bytes.Control::2         4088                      
system.ruby.network.routers3.throttle0.msg_bytes.Control::5          208                      
system.ruby.network.routers3.throttle0.msg_bytes.Control::6          432                      
system.ruby.network.routers3.throttle1.link_utilization            0                      
system.ruby.network.routers4.throttle0.link_utilization     0.000001                      
system.ruby.network.routers4.throttle0.msg_count.Control::2          511                      
system.ruby.network.routers4.throttle0.msg_count.Control::4           54                      
system.ruby.network.routers4.throttle0.msg_count.Control::6           54                      
system.ruby.network.routers4.throttle0.msg_bytes.Control::2         4088                      
system.ruby.network.routers4.throttle0.msg_bytes.Control::4          432                      
system.ruby.network.routers4.throttle0.msg_bytes.Control::6          432                      
system.ruby.network.routers4.throttle1.link_utilization     0.000002                      
system.ruby.network.routers4.throttle1.msg_count.Response_Data::4          484                      
system.ruby.network.routers4.throttle1.msg_bytes.Response_Data::4        34848                      
system.ruby.network.routers5.throttle0.link_utilization     0.000011                      
system.ruby.network.routers5.throttle0.msg_count.Control::2          511                      
system.ruby.network.routers5.throttle0.msg_count.Control::6           54                      
system.ruby.network.routers5.throttle0.msg_count.Response_Data::4          484                      
system.ruby.network.routers5.throttle0.msg_bytes.Control::2         4088                      
system.ruby.network.routers5.throttle0.msg_bytes.Control::6          432                      
system.ruby.network.routers5.throttle0.msg_bytes.Response_Data::4        34848                      
system.ruby.network.routers5.throttle1.link_utilization     0.000001                      
system.ruby.network.routers5.throttle1.msg_count.Control::2          511                      
system.ruby.network.routers5.throttle1.msg_count.Control::5           26                      
system.ruby.network.routers5.throttle1.msg_count.Control::6           54                      
system.ruby.network.routers5.throttle1.msg_bytes.Control::2         4088                      
system.ruby.network.routers5.throttle1.msg_bytes.Control::5          208                      
system.ruby.network.routers5.throttle1.msg_bytes.Control::6          432                      
system.ruby.network.routers5.throttle2.link_utilization     0.000001                      
system.ruby.network.routers5.throttle2.msg_count.Control::2          511                      
system.ruby.network.routers5.throttle2.msg_count.Control::5           26                      
system.ruby.network.routers5.throttle2.msg_count.Control::6           54                      
system.ruby.network.routers5.throttle2.msg_bytes.Control::2         4088                      
system.ruby.network.routers5.throttle2.msg_bytes.Control::5          208                      
system.ruby.network.routers5.throttle2.msg_bytes.Control::6          432                      
system.ruby.network.routers5.throttle3.link_utilization     0.000001                      
system.ruby.network.routers5.throttle3.msg_count.Control::2          511                      
system.ruby.network.routers5.throttle3.msg_count.Control::5           26                      
system.ruby.network.routers5.throttle3.msg_count.Control::6           54                      
system.ruby.network.routers5.throttle3.msg_bytes.Control::2         4088                      
system.ruby.network.routers5.throttle3.msg_bytes.Control::5          208                      
system.ruby.network.routers5.throttle3.msg_bytes.Control::6          432                      
system.ruby.network.routers5.throttle4.link_utilization     0.000001                      
system.ruby.network.routers5.throttle4.msg_count.Control::2          511                      
system.ruby.network.routers5.throttle4.msg_count.Control::4           54                      
system.ruby.network.routers5.throttle4.msg_count.Control::6           54                      
system.ruby.network.routers5.throttle4.msg_bytes.Control::2         4088                      
system.ruby.network.routers5.throttle4.msg_bytes.Control::4          432                      
system.ruby.network.routers5.throttle4.msg_bytes.Control::6          432                      
system.ruby.delayVCHist.vnet_1::bucket_size        16384                       # delay histogram for vnet_1
system.ruby.delayVCHist.vnet_1::max_bucket       163839                       # delay histogram for vnet_1
system.ruby.delayVCHist.vnet_1::samples           484                       # delay histogram for vnet_1
system.ruby.delayVCHist.vnet_1::mean     62107.528926                       # delay histogram for vnet_1
system.ruby.delayVCHist.vnet_1::gmean    44375.354004                       # delay histogram for vnet_1
system.ruby.delayVCHist.vnet_1::stdev    37823.494888                       # delay histogram for vnet_1
system.ruby.delayVCHist.vnet_1           |          71     14.67%     14.67% |          74     15.29%     29.96% |          42      8.68%     38.64% |          67     13.84%     52.48% |          71     14.67%     67.15% |          52     10.74%     77.89% |          53     10.95%     88.84% |          54     11.16%    100.00% |           0      0.00%    100.00% |           0      0.00%    100.00% # delay histogram for vnet_1
system.ruby.delayVCHist.vnet_1::total             484                       # delay histogram for vnet_1
system.ruby.delayVCHist.vnet_2::bucket_size        16384                       # delay histogram for vnet_2
system.ruby.delayVCHist.vnet_2::max_bucket       163839                       # delay histogram for vnet_2
system.ruby.delayVCHist.vnet_2::samples          2338                       # delay histogram for vnet_2
system.ruby.delayVCHist.vnet_2::mean     64520.417023                       # delay histogram for vnet_2
system.ruby.delayVCHist.vnet_2::gmean    47172.603787                       # delay histogram for vnet_2
system.ruby.delayVCHist.vnet_2::stdev    37393.280278                       # delay histogram for vnet_2
system.ruby.delayVCHist.vnet_2           |         308     13.17%     13.17% |         326     13.94%     27.12% |         208      8.90%     36.01% |         318     13.60%     49.62% |         328     14.03%     63.64% |         302     12.92%     76.56% |         292     12.49%     89.05% |         256     10.95%    100.00% |           0      0.00%    100.00% |           0      0.00%    100.00% # delay histogram for vnet_2
system.ruby.delayVCHist.vnet_2::total            2338                       # delay histogram for vnet_2
system.ruby.LD.latency_hist::bucket_size           64                      
system.ruby.LD.latency_hist::max_bucket           639                      
system.ruby.LD.latency_hist::samples       1350969179                      
system.ruby.LD.latency_hist::mean            3.000014                      
system.ruby.LD.latency_hist::gmean           3.000001                      
system.ruby.LD.latency_hist::stdev           0.060840                      
system.ruby.LD.latency_hist              |  1350969092    100.00%    100.00% |           4      0.00%    100.00% |          45      0.00%    100.00% |          14      0.00%    100.00% |           3      0.00%    100.00% |          13      0.00%    100.00% |           8      0.00%    100.00% |           0      0.00%    100.00% |           0      0.00%    100.00% |           0      0.00%    100.00%
system.ruby.LD.latency_hist::total         1350969179                      
system.ruby.LD.hit_latency_hist::bucket_size           64                      
system.ruby.LD.hit_latency_hist::max_bucket          639                      
system.ruby.LD.hit_latency_hist::samples           87                      
system.ruby.LD.hit_latency_hist::mean      225.574713                      
system.ruby.LD.hit_latency_hist::gmean     210.501959                      
system.ruby.LD.hit_latency_hist::stdev      89.613853                      
system.ruby.LD.hit_latency_hist          |           0      0.00%      0.00% |           4      4.60%      4.60% |          45     51.72%     56.32% |          14     16.09%     72.41% |           3      3.45%     75.86% |          13     14.94%     90.80% |           8      9.20%    100.00% |           0      0.00%    100.00% |           0      0.00%    100.00% |           0      0.00%    100.00%
system.ruby.LD.hit_latency_hist::total             87                      
system.ruby.LD.miss_latency_hist::bucket_size            1                      
system.ruby.LD.miss_latency_hist::max_bucket            9                      
system.ruby.LD.miss_latency_hist::samples   1350969092                      
system.ruby.LD.miss_latency_hist::mean              3                      
system.ruby.LD.miss_latency_hist::gmean      3.000000                      
system.ruby.LD.miss_latency_hist::stdev      0.000000                      
system.ruby.LD.miss_latency_hist         |           0      0.00%      0.00% |           0      0.00%      0.00% |           0      0.00%      0.00% |  1350969092    100.00%    100.00% |           0      0.00%    100.00% |           0      0.00%    100.00% |           0      0.00%    100.00% |           0      0.00%    100.00% |           0      0.00%    100.00% |           0      0.00%    100.00%
system.ruby.LD.miss_latency_hist::total    1350969092                      
system.ruby.ST.latency_hist::bucket_size           64                      
[...]
system.ruby.RMW_Read.hit_latency_hist::total            1                      
system.ruby.RMW_Read.miss_latency_hist::bucket_size           32                      
system.ruby.RMW_Read.miss_latency_hist::max_bucket          319                      
system.ruby.RMW_Read.miss_latency_hist::samples           11                      
system.ruby.RMW_Read.miss_latency_hist::mean    30.272727                      
system.ruby.RMW_Read.miss_latency_hist::gmean     6.109993                      
system.ruby.RMW_Read.miss_latency_hist::stdev    62.143529                      
system.ruby.RMW_Read.miss_latency_hist   |           9     81.82%     81.82% |           0      0.00%     81.82% |           0      0.00%     81.82% |           1      9.09%     90.91% |           0      0.00%     90.91% |           1      9.09%    100.00% |           0      0.00%    100.00% |           0      0.00%    100.00% |           0      0.00%    100.00% |           0      0.00%    100.00%
system.ruby.RMW_Read.miss_latency_hist::total           11                      
system.ruby.Locked_RMW_Read.latency_hist::bucket_size           64                      
system.ruby.Locked_RMW_Read.latency_hist::max_bucket          639                      
system.ruby.Locked_RMW_Read.latency_hist::samples           13                      
system.ruby.Locked_RMW_Read.latency_hist::mean    56.538462                      
system.ruby.Locked_RMW_Read.latency_hist::gmean     8.098658                      
system.ruby.Locked_RMW_Read.latency_hist::stdev   109.611903                      
system.ruby.Locked_RMW_Read.latency_hist |          10     76.92%     76.92% |           0      0.00%     76.92% |           1      7.69%     84.62% |           1      7.69%     92.31% |           0      0.00%     92.31% |           1      7.69%    100.00% |           0      0.00%    100.00% |           0      0.00%    100.00% |           0      0.00%    100.00% |           0      0.00%    100.00%
system.ruby.Locked_RMW_Read.latency_hist::total           13                      
system.ruby.Locked_RMW_Read.miss_latency_hist::bucket_size           64                      
system.ruby.Locked_RMW_Read.miss_latency_hist::max_bucket          639                      
system.ruby.Locked_RMW_Read.miss_latency_hist::samples           13                      
system.ruby.Locked_RMW_Read.miss_latency_hist::mean    56.538462                      
system.ruby.Locked_RMW_Read.miss_latency_hist::gmean     8.098658                      
system.ruby.Locked_RMW_Read.miss_latency_hist::stdev   109.611903                      
system.ruby.Locked_RMW_Read.miss_latency_hist |          10     76.92%     76.92% |           0      0.00%     76.92% |           1      7.69%     84.62% |           1      7.69%     92.31% |           0      0.00%     92.31% |           1      7.69%    100.00% |           0      0.00%    100.00% |           0      0.00%    100.00% |           0      0.00%    100.00% |           0      0.00%    100.00%
system.ruby.Locked_RMW_Read.miss_latency_hist::total           13                      
system.ruby.Locked_RMW_Write.latency_hist::bucket_size            1                      
system.ruby.Locked_RMW_Write.latency_hist::max_bucket            9                      
system.ruby.Locked_RMW_Write.latency_hist::samples           13                      
system.ruby.Locked_RMW_Write.latency_hist::mean            3                      
system.ruby.Locked_RMW_Write.latency_hist::gmean     3.000000                      
system.ruby.Locked_RMW_Write.latency_hist |           0      0.00%      0.00% |           0      0.00%      0.00% |           0      0.00%      0.00% |          13    100.00%    100.00% |           0      0.00%    100.00% |           0      0.00%    100.00% |           0      0.00%    100.00% |           0      0.00%    100.00% |           0      0.00%    100.00% |           0      0.00%    100.00%
system.ruby.Locked_RMW_Write.latency_hist::total           13                      
system.ruby.Locked_RMW_Write.miss_latency_hist::bucket_size            1                      
system.ruby.Locked_RMW_Write.miss_latency_hist::max_bucket            9                      
system.ruby.Locked_RMW_Write.miss_latency_hist::samples           13                      
system.ruby.Locked_RMW_Write.miss_latency_hist::mean            3                      
system.ruby.Locked_RMW_Write.miss_latency_hist::gmean     3.000000                      
system.ruby.Locked_RMW_Write.miss_latency_hist |           0      0.00%      0.00% |           0      0.00%      0.00% |           0      0.00%      0.00% |          13    100.00%    100.00% |           0      0.00%    100.00% |           0      0.00%    100.00% |           0      0.00%    100.00% |           0      0.00%    100.00% |           0      0.00%    100.00% |           0      0.00%    100.00%
system.ruby.Locked_RMW_Write.miss_latency_hist::total           13                      
system.ruby.Directory_Controller.Data              54      0.00%      0.00%
system.ruby.Directory_Controller.Memory_Data          484      0.00%      0.00%
system.ruby.Directory_Controller.Memory_Ack           54      0.00%      0.00%
system.ruby.Directory_Controller.GETS             374      0.00%      0.00%
system.ruby.Directory_Controller.PUTM              54      0.00%      0.00%
system.ruby.Directory_Controller.GETM             110      0.00%      0.00%
system.ruby.Directory_Controller.UPG               27      0.00%      0.00%
system.ruby.Directory_Controller.I.Memory_Ack           54      0.00%      0.00%
system.ruby.Directory_Controller.I.GETS           374      0.00%      0.00%
system.ruby.Directory_Controller.I.GETM           110      0.00%      0.00%
system.ruby.Directory_Controller.I.UPG             27      0.00%      0.00%
system.ruby.Directory_Controller.M.PUTM            54      0.00%      0.00%
system.ruby.Directory_Controller.IM.Memory_Data          110      0.00%      0.00%
system.ruby.Directory_Controller.MI.Data           54      0.00%      0.00%
system.ruby.Directory_Controller.IS.Memory_Data          374      0.00%      0.00%
system.ruby.L1Cache_Controller.Load      |  1350969179    100.00%    100.00% |           0      0.00%    100.00% |           0      0.00%    100.00% |           0      0.00%    100.00%
system.ruby.L1Cache_Controller.Load::total   1350969179                      
system.ruby.L1Cache_Controller.Store     |        1064    100.00%    100.00% |           0      0.00%    100.00% |           0      0.00%    100.00% |           0      0.00%    100.00%
system.ruby.L1Cache_Controller.Store::total         1064                      
system.ruby.L1Cache_Controller.Ifetch    |18446744073467496448    100.00%    100.00% |           0      0.00%    100.00% |           0      0.00%    100.00% |           0      0.00%    100.00%
system.ruby.L1Cache_Controller.Ifetch::total 18446744073467496448                      
system.ruby.L1Cache_Controller.RMW_Read  |          13    100.00%    100.00% |           0      0.00%    100.00% |           0      0.00%    100.00% |           0      0.00%    100.00%
system.ruby.L1Cache_Controller.RMW_Read::total           13                      
system.ruby.L1Cache_Controller.RMW_Write |          13    100.00%    100.00% |           0      0.00%    100.00% |           0      0.00%    100.00% |           0      0.00%    100.00%
system.ruby.L1Cache_Controller.RMW_Write::total           13                      
system.ruby.L1Cache_Controller.Replacement |         180    100.00%    100.00% |           0      0.00%    100.00% |           0      0.00%    100.00% |           0      0.00%    100.00%
system.ruby.L1Cache_Controller.Replacement::total          180                      
system.ruby.L1Cache_Controller.Other_GETS |           0      0.00%      0.00% |          87     33.33%     33.33% |          87     33.33%     66.67% |          87     33.33%    100.00%
system.ruby.L1Cache_Controller.Other_GETS::total          261                      
system.ruby.L1Cache_Controller.Other_GETM |           0      0.00%      0.00% |         110     33.33%     33.33% |         110     33.33%     66.67% |         110     33.33%    100.00%
system.ruby.L1Cache_Controller.Other_GETM::total          330                      
system.ruby.L1Cache_Controller.Other_GETI |           0      0.00%      0.00% |         287     33.33%     33.33% |         287     33.33%     66.67% |         287     33.33%    100.00%
system.ruby.L1Cache_Controller.Other_GETI::total          861                      
system.ruby.L1Cache_Controller.Other_PUTM |           0      0.00%      0.00% |          54     33.33%     33.33% |          54     33.33%     66.67% |          54     33.33%    100.00%
system.ruby.L1Cache_Controller.Other_PUTM::total          162                      
system.ruby.L1Cache_Controller.OWN_GETS  |          87    100.00%    100.00% |           0      0.00%    100.00% |           0      0.00%    100.00% |           0      0.00%    100.00%
system.ruby.L1Cache_Controller.OWN_GETS::total           87                      
system.ruby.L1Cache_Controller.OWN_GETM  |         110    100.00%    100.00% |           0      0.00%    100.00% |           0      0.00%    100.00% |           0      0.00%    100.00%
system.ruby.L1Cache_Controller.OWN_GETM::total          110                      
system.ruby.L1Cache_Controller.OWN_GETI  |         287    100.00%    100.00% |           0      0.00%    100.00% |           0      0.00%    100.00% |           0      0.00%    100.00%
system.ruby.L1Cache_Controller.OWN_GETI::total          287                      
system.ruby.L1Cache_Controller.OWN_PUTM  |          54    100.00%    100.00% |           0      0.00%    100.00% |           0      0.00%    100.00% |           0      0.00%    100.00%
system.ruby.L1Cache_Controller.OWN_PUTM::total           54                      
system.ruby.L1Cache_Controller.OWN_UPG   |          27    100.00%    100.00% |           0      0.00%    100.00% |           0      0.00%    100.00% |           0      0.00%    100.00%
system.ruby.L1Cache_Controller.OWN_UPG::total           27                      
system.ruby.L1Cache_Controller.Other_UPG |           0      0.00%      0.00% |          27     33.33%     33.33% |          27     33.33%     66.67% |          27     33.33%    100.00%
system.ruby.L1Cache_Controller.Other_UPG::total           81                      
system.ruby.L1Cache_Controller.ATOMICST  |           0      0.00%      0.00% |          13     33.33%     33.33% |          13     33.33%     66.67% |          13     33.33%    100.00%
system.ruby.L1Cache_Controller.ATOMICST::total           39                      
system.ruby.L1Cache_Controller.ATOMICEN  |           0      0.00%      0.00% |          13     33.33%     33.33% |          13     33.33%     66.67% |          13     33.33%    100.00%
system.ruby.L1Cache_Controller.ATOMICEN::total           39                      
system.ruby.L1Cache_Controller.Data      |         484    100.00%    100.00% |           0      0.00%    100.00% |           0      0.00%    100.00% |           0      0.00%    100.00%
system.ruby.L1Cache_Controller.Data::total          484                      
system.ruby.L1Cache_Controller.I.Load    |          87    100.00%    100.00% |           0      0.00%    100.00% |           0      0.00%    100.00% |           0      0.00%    100.00%
system.ruby.L1Cache_Controller.I.Load::total           87                      
system.ruby.L1Cache_Controller.I.Store   |         108    100.00%    100.00% |           0      0.00%    100.00% |           0      0.00%    100.00% |           0      0.00%    100.00%
system.ruby.L1Cache_Controller.I.Store::total          108                      
system.ruby.L1Cache_Controller.I.Ifetch  |         287    100.00%    100.00% |           0      0.00%    100.00% |           0      0.00%    100.00% |           0      0.00%    100.00%
system.ruby.L1Cache_Controller.I.Ifetch::total          287                      
system.ruby.L1Cache_Controller.I.RMW_Read |           2    100.00%    100.00% |           0      0.00%    100.00% |           0      0.00%    100.00% |           0      0.00%    100.00%
system.ruby.L1Cache_Controller.I.RMW_Read::total            2                      
system.ruby.L1Cache_Controller.I.Other_GETS |           0      0.00%      0.00% |          87     33.33%     33.33% |          87     33.33%     66.67% |          87     33.33%    100.00%
system.ruby.L1Cache_Controller.I.Other_GETS::total          261                      
system.ruby.L1Cache_Controller.I.Other_GETM |           0      0.00%      0.00% |         110     33.33%     33.33% |         110     33.33%     66.67% |         110     33.33%    100.00%
system.ruby.L1Cache_Controller.I.Other_GETM::total          330                      
system.ruby.L1Cache_Controller.I.Other_GETI |           0      0.00%      0.00% |         287     33.33%     33.33% |         287     33.33%     66.67% |         287     33.33%    100.00%
system.ruby.L1Cache_Controller.I.Other_GETI::total          861                      
system.ruby.L1Cache_Controller.I.Other_PUTM |           0      0.00%      0.00% |          54     33.33%     33.33% |          54     33.33%     66.67% |          54     33.33%    100.00%
system.ruby.L1Cache_Controller.I.Other_PUTM::total          162                      
system.ruby.L1Cache_Controller.I.Other_UPG |           0      0.00%      0.00% |          27     33.33%     33.33% |          27     33.33%     66.67% |          27     33.33%    100.00%
system.ruby.L1Cache_Controller.I.Other_UPG::total           81                      
system.ruby.L1Cache_Controller.I.ATOMICST |           0      0.00%      0.00% |          13     33.33%     33.33% |          13     33.33%     66.67% |          13     33.33%    100.00%
system.ruby.L1Cache_Controller.I.ATOMICST::total           39                      
system.ruby.L1Cache_Controller.I.ATOMICEN |           0      0.00%      0.00% |          13     33.33%     33.33% |          13     33.33%     66.67% |          13     33.33%    100.00%
system.ruby.L1Cache_Controller.I.ATOMICEN::total           39                      
system.ruby.L1Cache_Controller.S.Load    |  1350968635    100.00%    100.00% |           0      0.00%    100.00% |           0      0.00%    100.00% |           0      0.00%    100.00%
system.ruby.L1Cache_Controller.S.Load::total   1350968635                      
system.ruby.L1Cache_Controller.S.Store   |          26    100.00%    100.00% |           0      0.00%    100.00% |           0      0.00%    100.00% |           0      0.00%    100.00%
system.ruby.L1Cache_Controller.S.Store::total           26                      
system.ruby.L1Cache_Controller.S.Ifetch  |18446744073467496448    100.00%    100.00% |           0      0.00%    100.00% |           0      0.00%    100.00% |           0      0.00%    100.00%
system.ruby.L1Cache_Controller.S.Ifetch::total 18446744073467496448                      
system.ruby.L1Cache_Controller.S.RMW_Read |           1    100.00%    100.00% |           0      0.00%    100.00% |           0      0.00%    100.00% |           0      0.00%    100.00%
system.ruby.L1Cache_Controller.S.RMW_Read::total            1                      
system.ruby.L1Cache_Controller.S.Replacement |         126    100.00%    100.00% |           0      0.00%    100.00% |           0      0.00%    100.00% |           0      0.00%    100.00%
system.ruby.L1Cache_Controller.S.Replacement::total          126                      
system.ruby.L1Cache_Controller.M.Load    |         457    100.00%    100.00% |           0      0.00%    100.00% |           0      0.00%    100.00% |           0      0.00%    100.00%
system.ruby.L1Cache_Controller.M.Load::total          457                      
system.ruby.L1Cache_Controller.M.Store   |         930    100.00%    100.00% |           0      0.00%    100.00% |           0      0.00%    100.00% |           0      0.00%    100.00%
system.ruby.L1Cache_Controller.M.Store::total          930                      
system.ruby.L1Cache_Controller.M.RMW_Read |          10    100.00%    100.00% |           0      0.00%    100.00% |           0      0.00%    100.00% |           0      0.00%    100.00%
system.ruby.L1Cache_Controller.M.RMW_Read::total           10                      
system.ruby.L1Cache_Controller.M.Replacement |          54    100.00%    100.00% |           0      0.00%    100.00% |           0      0.00%    100.00% |           0      0.00%    100.00%
system.ruby.L1Cache_Controller.M.Replacement::total           54                      
system.ruby.L1Cache_Controller.IS_AD.OWN_GETS |          87    100.00%    100.00% |           0      0.00%    100.00% |           0      0.00%    100.00% |           0      0.00%    100.00%
system.ruby.L1Cache_Controller.IS_AD.OWN_GETS::total           87                      
system.ruby.L1Cache_Controller.IS_AD.OWN_GETI |         287    100.00%    100.00% |           0      0.00%    100.00% |           0      0.00%    100.00% |           0      0.00%    100.00%
system.ruby.L1Cache_Controller.IS_AD.OWN_GETI::total          287                      
system.ruby.L1Cache_Controller.IS_D.Data |         374    100.00%    100.00% |           0      0.00%    100.00% |           0      0.00%    100.00% |           0      0.00%    100.00%
system.ruby.L1Cache_Controller.IS_D.Data::total          374                      
system.ruby.L1Cache_Controller.IM_AD.OWN_GETM |         108    100.00%    100.00% |           0      0.00%    100.00% |           0      0.00%    100.00% |           0      0.00%    100.00%
system.ruby.L1Cache_Controller.IM_AD.OWN_GETM::total          108                      
system.ruby.L1Cache_Controller.IM_D.Data |         108    100.00%    100.00% |           0      0.00%    100.00% |           0      0.00%    100.00% |           0      0.00%    100.00%
system.ruby.L1Cache_Controller.IM_D.Data::total          108                      
system.ruby.L1Cache_Controller.MI_A.OWN_PUTM |          54    100.00%    100.00% |           0      0.00%    100.00% |           0      0.00%    100.00% |           0      0.00%    100.00%
system.ruby.L1Cache_Controller.MI_A.OWN_PUTM::total           54                      
system.ruby.L1Cache_Controller.SM_W.OWN_UPG |          26    100.00%    100.00% |           0      0.00%    100.00% |           0      0.00%    100.00% |           0      0.00%    100.00%
system.ruby.L1Cache_Controller.SM_W.OWN_UPG::total           26                      
system.ruby.L1Cache_Controller.M_L.RMW_Write |          13    100.00%    100.00% |           0      0.00%    100.00% |           0      0.00%    100.00% |           0      0.00%    100.00%
system.ruby.L1Cache_Controller.M_L.RMW_Write::total           13                      
system.ruby.L1Cache_Controller.SM_WL.OWN_UPG |           1    100.00%    100.00% |           0      0.00%    100.00% |           0      0.00%    100.00% |           0      0.00%    100.00%
system.ruby.L1Cache_Controller.SM_WL.OWN_UPG::total            1                      
system.ruby.L1Cache_Controller.IM_DL.OWN_GETM |           2    100.00%    100.00% |           0      0.00%    100.00% |           0      0.00%    100.00% |           0      0.00%    100.00%
system.ruby.L1Cache_Controller.IM_DL.OWN_GETM::total            2                      
system.ruby.L1Cache_Controller.IM_DL.Data |           2    100.00%    100.00% |           0      0.00%    100.00% |           0      0.00%    100.00% |           0      0.00%    100.00%
system.ruby.L1Cache_Controller.IM_DL.Data::total            2                      

---------- End Simulation Statistics   ----------
