
---------- Begin Simulation Statistics ----------
sim_seconds                                  0.168826                       # Number of seconds simulated
sim_ticks                                168826027000                       # Number of ticks simulated
final_tick                               168826027000                       # Number of ticks from beginning of simulation (restored from checkpoints and never reset)
sim_freq                                 1000000000000                       # Frequency of simulated ticks
host_inst_rate                                 198868                       # Simulator instruction rate (inst/s)
host_op_rate                                   324073                       # Simulator op (including micro ops) rate (op/s)
host_tick_rate                              654468835                       # Simulator tick rate (ticks/s)
host_mem_usage                                4989612                       # Number of bytes of host memory used
host_seconds                                   257.96                       # Real time elapsed on the host
sim_insts                                    51299765                       # Number of instructions simulated
sim_ops                                      83597579                       # Number of ops (including micro ops) simulated
system.voltage_domain.voltage                       1                       # Voltage in Volts
system.clk_domain.clock                          1000                       # Clock period in ticks
system.mem_ctrls.bytes_read::ruby.dir_cntrl0     53958784                       # Number of bytes read from this memory
system.mem_ctrls.bytes_read::total           53958784                       # Number of bytes read from this memory
system.mem_ctrls.bytes_written::ruby.dir_cntrl0     24236992                       # Number of bytes written to this memory
system.mem_ctrls.bytes_written::total        24236992                       # Number of bytes written to this memory
system.mem_ctrls.num_reads::ruby.dir_cntrl0       843106                       # Number of read requests responded to by this memory
system.mem_ctrls.num_reads::total              843106                       # Number of read requests responded to by this memory
system.mem_ctrls.num_writes::ruby.dir_cntrl0       378703                       # Number of write requests responded to by this memory
system.mem_ctrls.num_writes::total             378703                       # Number of write requests responded to by this memory
system.mem_ctrls.bw_read::ruby.dir_cntrl0    319611762                       # Total read bandwidth from this memory (bytes/s)
system.mem_ctrls.bw_read::total             319611762                       # Total read bandwidth from this memory (bytes/s)
system.mem_ctrls.bw_write::ruby.dir_cntrl0    143561940                       # Write bandwidth from this memory (bytes/s)
system.mem_ctrls.bw_write::total            143561940                       # Write bandwidth from this memory (bytes/s)
system.mem_ctrls.bw_total::ruby.dir_cntrl0    463173702                       # Total bandwidth to/from this memory (bytes/s)
system.mem_ctrls.bw_total::total            463173702                       # Total bandwidth to/from this memory (bytes/s)
system.cpu_voltage_domain.voltage                   1                       # Voltage in Volts
system.cpu_clk_domain.clock                       500                       # Clock period in ticks
system.cpu0.apic_clk_domain.clock                8000                       # Clock period in ticks
system.cpu0.workload.num_syscalls                 123                       # Number of system calls
system.cpu0.numCycles                       337652054                       # number of cpu cycles simulated
system.cpu0.numWorkItemsStarted                     0                       # number of work items this cpu started
system.cpu0.numWorkItemsCompleted                   0                       # number of work items this cpu completed
system.cpu0.committedInsts                   28236426                       # Number of instructions committed
system.cpu0.committedOps                     48554507                       # Number of ops (including micro ops) committed
system.cpu0.num_int_alu_accesses             44726977                       # Number of integer alu accesses
system.cpu0.num_fp_alu_accesses               6651145                       # Number of float alu accesses
system.cpu0.num_func_calls                     308933                       # number of times a function call or return occured
system.cpu0.num_conditional_control_insts      5193687                       # number of instructions that are conditional controls
system.cpu0.num_int_insts                    44726977                       # number of integer instructions
system.cpu0.num_fp_insts                      6651145                       # number of float instructions
system.cpu0.num_int_register_reads           87850103                       # number of times the integer registers were read
system.cpu0.num_int_register_writes          34138996                       # number of times the integer registers were written
system.cpu0.num_fp_register_reads            11097940                       # number of times the floating registers were read
system.cpu0.num_fp_register_writes            5607400                       # number of times the floating registers were written
system.cpu0.num_cc_register_reads            29350430                       # number of times the CC registers were read
system.cpu0.num_cc_register_writes           16209515                       # number of times the CC registers were written
system.cpu0.num_mem_refs                     10392985                       # number of memory refs
system.cpu0.num_load_insts                    7259092                       # Number of load instructions
system.cpu0.num_store_insts                   3133893                       # Number of store instructions
system.cpu0.num_idle_cycles                  0.002000                       # Number of idle cycles
system.cpu0.num_busy_cycles              337652053.998000                       # Number of busy cycles
system.cpu0.not_idle_fraction                1.000000                       # Percentage of non-idle cycles
system.cpu0.idle_fraction                    0.000000                       # Percentage of idle cycles
system.cpu0.Branches                          5775316                       # Number of branches fetched
system.cpu0.op_class::No_OpClass                90327      0.19%      0.19% # Class of executed instruction
system.cpu0.op_class::IntAlu                 34939704     71.96%     72.15% # Class of executed instruction
system.cpu0.op_class::IntMult                  153112      0.32%     72.46% # Class of executed instruction
system.cpu0.op_class::IntDiv                    52833      0.11%     72.57% # Class of executed instruction
system.cpu0.op_class::FloatAdd                2925546      6.03%     78.60% # Class of executed instruction
system.cpu0.op_class::FloatCmp                      0      0.00%     78.60% # Class of executed instruction
system.cpu0.op_class::FloatCvt                      0      0.00%     78.60% # Class of executed instruction
system.cpu0.op_class::FloatMult                     0      0.00%     78.60% # Class of executed instruction
system.cpu0.op_class::FloatDiv                      0      0.00%     78.60% # Class of executed instruction
system.cpu0.op_class::FloatSqrt                     0      0.00%     78.60% # Class of executed instruction
system.cpu0.op_class::SimdAdd                       0      0.00%     78.60% # Class of executed instruction
system.cpu0.op_class::SimdAddAcc                    0      0.00%     78.60% # Class of executed instruction
system.cpu0.op_class::SimdAlu                       0      0.00%     78.60% # Class of executed instruction
system.cpu0.op_class::SimdCmp                       0      0.00%     78.60% # Class of executed instruction
system.cpu0.op_class::SimdCvt                       0      0.00%     78.60% # Class of executed instruction
system.cpu0.op_class::SimdMisc                      0      0.00%     78.60% # Class of executed instruction
system.cpu0.op_class::SimdMult                      0      0.00%     78.60% # Class of executed instruction
system.cpu0.op_class::SimdMultAcc                   0      0.00%     78.60% # Class of executed instruction
system.cpu0.op_class::SimdShift                     0      0.00%     78.60% # Class of executed instruction
system.cpu0.op_class::SimdShiftAcc                  0      0.00%     78.60% # Class of executed instruction
system.cpu0.op_class::SimdSqrt                      0      0.00%     78.60% # Class of executed instruction
system.cpu0.op_class::SimdFloatAdd                  0      0.00%     78.60% # Class of executed instruction
system.cpu0.op_class::SimdFloatAlu                  0      0.00%     78.60% # Class of executed instruction
system.cpu0.op_class::SimdFloatCmp                  0      0.00%     78.60% # Class of executed instruction
system.cpu0.op_class::SimdFloatCvt                  0      0.00%     78.60% # Class of executed instruction
system.cpu0.op_class::SimdFloatDiv                  0      0.00%     78.60% # Class of executed instruction
system.cpu0.op_class::SimdFloatMisc                 0      0.00%     78.60% # Class of executed instruction
system.cpu0.op_class::SimdFloatMult                 0      0.00%     78.60% # Class of executed instruction
system.cpu0.op_class::SimdFloatMultAcc              0      0.00%     78.60% # Class of executed instruction
system.cpu0.op_class::SimdFloatSqrt                 0      0.00%     78.60% # Class of executed instruction
system.cpu0.op_class::MemRead                 7259092     14.95%     93.55% # Class of executed instruction
system.cpu0.op_class::MemWrite                3133893      6.45%    100.00% # Class of executed instruction
system.cpu0.op_class::IprAccess                     0      0.00%    100.00% # Class of executed instruction
system.cpu0.op_class::InstPrefetch                  0      0.00%    100.00% # Class of executed instruction
system.cpu0.op_class::total                  48554507                       # Class of executed instruction
system.cpu1.apic_clk_domain.clock                8000                       # Clock period in ticks
system.cpu1.numCycles                       337454136                       # number of cpu cycles simulated
system.cpu1.numWorkItemsStarted                     0                       # number of work items this cpu started
system.cpu1.numWorkItemsCompleted                   0                       # number of work items this cpu completed
system.cpu1.committedInsts                    7645926                       # Number of instructions committed
system.cpu1.committedOps                     11352711                       # Number of ops (including micro ops) committed
system.cpu1.num_int_alu_accesses              7483648                       # Number of integer alu accesses
system.cpu1.num_fp_alu_accesses               5965240                       # Number of float alu accesses
system.cpu1.num_func_calls                       5459                       # number of times a function call or return occured
system.cpu1.num_conditional_control_insts       741529                       # number of instructions that are conditional controls
system.cpu1.num_int_insts                     7483648                       # number of integer instructions
system.cpu1.num_fp_insts                      5965240                       # number of float instructions
system.cpu1.num_int_register_reads           16319617                       # number of times the integer registers were read
system.cpu1.num_int_register_writes           4430556                       # number of times the integer registers were written
system.cpu1.num_fp_register_reads            11090150                       # number of times the floating registers were read
system.cpu1.num_fp_register_writes            5505031                       # number of times the floating registers were written
system.cpu1.num_cc_register_reads             4700554                       # number of times the CC registers were read
system.cpu1.num_cc_register_writes            2625280                       # number of times the CC registers were written
system.cpu1.num_mem_refs                      3178305                       # number of memory refs
system.cpu1.num_load_insts                    2515711                       # Number of load instructions
system.cpu1.num_store_insts                    662594                       # Number of store instructions
system.cpu1.num_idle_cycles              253553066.263632                       # Number of idle cycles
system.cpu1.num_busy_cycles              83901069.736368                       # Number of busy cycles
system.cpu1.not_idle_fraction                0.248630                       # Percentage of non-idle cycles
system.cpu1.idle_fraction                    0.751370                       # Percentage of idle cycles
system.cpu1.Branches                           750876                       # Number of branches fetched
system.cpu1.op_class::No_OpClass                 8048      0.07%      0.07% # Class of executed instruction
system.cpu1.op_class::IntAlu                  5246572     46.21%     46.29% # Class of executed instruction
system.cpu1.op_class::IntMult                    4421      0.04%     46.32% # Class of executed instruction
system.cpu1.op_class::IntDiv                     1183      0.01%     46.33% # Class of executed instruction
system.cpu1.op_class::FloatAdd                2914182     25.67%     72.00% # Class of executed instruction
system.cpu1.op_class::FloatCmp                      0      0.00%     72.00% # Class of executed instruction
system.cpu1.op_class::FloatCvt                      0      0.00%     72.00% # Class of executed instruction
system.cpu1.op_class::FloatMult                     0      0.00%     72.00% # Class of executed instruction
system.cpu1.op_class::FloatDiv                      0      0.00%     72.00% # Class of executed instruction
system.cpu1.op_class::FloatSqrt                     0      0.00%     72.00% # Class of executed instruction
system.cpu1.op_class::SimdAdd                       0      0.00%     72.00% # Class of executed instruction
system.cpu1.op_class::SimdAddAcc                    0      0.00%     72.00% # Class of executed instruction
system.cpu1.op_class::SimdAlu                       0      0.00%     72.00% # Class of executed instruction
system.cpu1.op_class::SimdCmp                       0      0.00%     72.00% # Class of executed instruction
system.cpu1.op_class::SimdCvt                       0      0.00%     72.00% # Class of executed instruction
system.cpu1.op_class::SimdMisc                      0      0.00%     72.00% # Class of executed instruction
system.cpu1.op_class::SimdMult                      0      0.00%     72.00% # Class of executed instruction
system.cpu1.op_class::SimdMultAcc                   0      0.00%     72.00% # Class of executed instruction
system.cpu1.op_class::SimdShift                     0      0.00%     72.00% # Class of executed instruction
system.cpu1.op_class::SimdShiftAcc                  0      0.00%     72.00% # Class of executed instruction
system.cpu1.op_class::SimdSqrt                      0      0.00%     72.00% # Class of executed instruction
system.cpu1.op_class::SimdFloatAdd                  0      0.00%     72.00% # Class of executed instruction
system.cpu1.op_class::SimdFloatAlu                  0      0.00%     72.00% # Class of executed instruction
system.cpu1.op_class::SimdFloatCmp                  0      0.00%     72.00% # Class of executed instruction
system.cpu1.op_class::SimdFloatCvt                  0      0.00%     72.00% # Class of executed instruction
system.cpu1.op_class::SimdFloatDiv                  0      0.00%     72.00% # Class of executed instruction
system.cpu1.op_class::SimdFloatMisc                 0      0.00%     72.00% # Class of executed instruction
system.cpu1.op_class::SimdFloatMult                 0      0.00%     72.00% # Class of executed instruction
system.cpu1.op_class::SimdFloatMultAcc              0      0.00%     72.00% # Class of executed instruction
system.cpu1.op_class::SimdFloatSqrt                 0      0.00%     72.00% # Class of executed instruction
system.cpu1.op_class::MemRead                 2515711     22.16%     94.16% # Class of executed instruction
system.cpu1.op_class::MemWrite                 662594      5.84%    100.00% # Class of executed instruction
system.cpu1.op_class::IprAccess                     0      0.00%    100.00% # Class of executed instruction
system.cpu1.op_class::InstPrefetch                  0      0.00%    100.00% # Class of executed instruction
system.cpu1.op_class::total                  11352711                       # Class of executed instruction
system.cpu2.apic_clk_domain.clock                8000                       # Clock period in ticks
system.cpu2.numCycles                       337453786                       # number of cpu cycles simulated
system.cpu2.numWorkItemsStarted                     0                       # number of work items this cpu started
system.cpu2.numWorkItemsCompleted                   0                       # number of work items this cpu completed
system.cpu2.committedInsts                    7890679                       # Number of instructions committed
system.cpu2.committedOps                     12194289                       # Number of ops (including micro ops) committed
system.cpu2.num_int_alu_accesses              9033123                       # Number of integer alu accesses
system.cpu2.num_fp_alu_accesses               4954887                       # Number of float alu accesses
system.cpu2.num_func_calls                       5455                       # number of times a function call or return occured
system.cpu2.num_conditional_control_insts      1159809                       # number of instructions that are conditional controls
system.cpu2.num_int_insts                     9033123                       # number of integer instructions
system.cpu2.num_fp_insts                      4954887                       # number of float instructions
system.cpu2.num_int_register_reads           18633112                       # number of times the integer registers were read
system.cpu2.num_int_register_writes           5895980                       # number of times the integer registers were written
system.cpu2.num_fp_register_reads             9120701                       # number of times the floating registers were read
system.cpu2.num_fp_register_writes            4537503                       # number of times the floating registers were written
system.cpu2.num_cc_register_reads             7149432                       # number of times the CC registers were read
system.cpu2.num_cc_register_writes            3307336                       # number of times the CC registers were written
system.cpu2.num_mem_refs                      3221647                       # number of memory refs
system.cpu2.num_load_insts                    2633124                       # Number of load instructions
system.cpu2.num_store_insts                    588523                       # Number of store instructions
system.cpu2.num_idle_cycles              253554184.472469                       # Number of idle cycles
system.cpu2.num_busy_cycles              83899601.527531                       # Number of busy cycles
system.cpu2.not_idle_fraction                0.248625                       # Percentage of non-idle cycles
system.cpu2.idle_fraction                    0.751375                       # Percentage of idle cycles
system.cpu2.Branches                          1169273                       # Number of branches fetched
system.cpu2.op_class::No_OpClass                 6879      0.06%      0.06% # Class of executed instruction
system.cpu2.op_class::IntAlu                  6560475     53.80%     53.86% # Class of executed instruction
system.cpu2.op_class::IntMult                    4065      0.03%     53.89% # Class of executed instruction
system.cpu2.op_class::IntDiv                      938      0.01%     53.90% # Class of executed instruction
system.cpu2.op_class::FloatAdd                2400285     19.68%     73.58% # Class of executed instruction
system.cpu2.op_class::FloatCmp                      0      0.00%     73.58% # Class of executed instruction
system.cpu2.op_class::FloatCvt                      0      0.00%     73.58% # Class of executed instruction
system.cpu2.op_class::FloatMult                     0      0.00%     73.58% # Class of executed instruction
system.cpu2.op_class::FloatDiv                      0      0.00%     73.58% # Class of executed instruction
system.cpu2.op_class::FloatSqrt                     0      0.00%     73.58% # Class of executed instruction
system.cpu2.op_class::SimdAdd                       0      0.00%     73.58% # Class of executed instruction
system.cpu2.op_class::SimdAddAcc                    0      0.00%     73.58% # Class of executed instruction
system.cpu2.op_class::SimdAlu                       0      0.00%     73.58% # Class of executed instruction
system.cpu2.op_class::SimdCmp                       0      0.00%     73.58% # Class of executed instruction
system.cpu2.op_class::SimdCvt                       0      0.00%     73.58% # Class of executed instruction
system.cpu2.op_class::SimdMisc                      0      0.00%     73.58% # Class of executed instruction
system.cpu2.op_class::SimdMult                      0      0.00%     73.58% # Class of executed instruction
system.cpu2.op_class::SimdMultAcc                   0      0.00%     73.58% # Class of executed instruction
system.cpu2.op_class::SimdShift                     0      0.00%     73.58% # Class of executed instruction
system.cpu2.op_class::SimdShiftAcc                  0      0.00%     73.58% # Class of executed instruction
system.cpu2.op_class::SimdSqrt                      0      0.00%     73.58% # Class of executed instruction
system.cpu2.op_class::SimdFloatAdd                  0      0.00%     73.58% # Class of executed instruction
system.cpu2.op_class::SimdFloatAlu                  0      0.00%     73.58% # Class of executed instruction
system.cpu2.op_class::SimdFloatCmp                  0      0.00%     73.58% # Class of executed instruction
system.cpu2.op_class::SimdFloatCvt                  0      0.00%     73.58% # Class of executed instruction
system.cpu2.op_class::SimdFloatDiv                  0      0.00%     73.58% # Class of executed instruction
system.cpu2.op_class::SimdFloatMisc                 0      0.00%     73.58% # Class of executed instruction
system.cpu2.op_class::SimdFloatMult                 0      0.00%     73.58% # Class of executed instruction
system.cpu2.op_class::SimdFloatMultAcc              0      0.00%     73.58% # Class of executed instruction
system.cpu2.op_class::SimdFloatSqrt                 0      0.00%     73.58% # Class of executed instruction
system.cpu2.op_class::MemRead                 2633124     21.59%     95.17% # Class of executed instruction
system.cpu2.op_class::MemWrite                 588523      4.83%    100.00% # Class of executed instruction
system.cpu2.op_class::IprAccess                     0      0.00%    100.00% # Class of executed instruction
system.cpu2.op_class::InstPrefetch                  0      0.00%    100.00% # Class of executed instruction
system.cpu2.op_class::total                  12194289                       # Class of executed instruction
system.cpu3.apic_clk_domain.clock                8000                       # Clock period in ticks
system.cpu3.numCycles                       337454036                       # number of cpu cycles simulated
system.cpu3.numWorkItemsStarted                     0                       # number of work items this cpu started
system.cpu3.numWorkItemsCompleted                   0                       # number of work items this cpu completed
system.cpu3.committedInsts                    7526734                       # Number of instructions committed
system.cpu3.committedOps                     11496072                       # Number of ops (including micro ops) committed
system.cpu3.num_int_alu_accesses              7541608                       # Number of integer alu accesses
system.cpu3.num_fp_alu_accesses               6311082                       # Number of float alu accesses
system.cpu3.num_func_calls                       6201                       # number of times a function call or return occured
system.cpu3.num_conditional_control_insts       601482                       # number of instructions that are conditional controls
system.cpu3.num_int_insts                     7541608                       # number of integer instructions
system.cpu3.num_fp_insts                      6311082                       # number of float instructions
system.cpu3.num_int_register_reads           16876305                       # number of times the integer registers were read
system.cpu3.num_int_register_writes           4361258                       # number of times the integer registers were written
system.cpu3.num_fp_register_reads            11424541                       # number of times the floating registers were read
system.cpu3.num_fp_register_writes            5772164                       # number of times the floating registers were written
system.cpu3.num_cc_register_reads             4377127                       # number of times the CC registers were read
system.cpu3.num_cc_register_writes            2733845                       # number of times the CC registers were written
system.cpu3.num_mem_refs                      3340822                       # number of memory refs
system.cpu3.num_load_insts                    2600147                       # Number of load instructions
system.cpu3.num_store_insts                    740675                       # Number of store instructions
system.cpu3.num_idle_cycles              253555321.758972                       # Number of idle cycles
system.cpu3.num_busy_cycles              83898714.241028                       # Number of busy cycles
system.cpu3.not_idle_fraction                0.248623                       # Percentage of non-idle cycles
system.cpu3.idle_fraction                    0.751377                       # Percentage of idle cycles
system.cpu3.Branches                           614723                       # Number of branches fetched
system.cpu3.op_class::No_OpClass                12099      0.11%      0.11% # Class of executed instruction
system.cpu3.op_class::IntAlu                  5127682     44.60%     44.71% # Class of executed instruction
system.cpu3.op_class::IntMult                    5218      0.05%     44.75% # Class of executed instruction
system.cpu3.op_class::IntDiv                     1316      0.01%     44.77% # Class of executed instruction
system.cpu3.op_class::FloatAdd                3008935     26.17%     70.94% # Class of executed instruction
system.cpu3.op_class::FloatCmp                      0      0.00%     70.94% # Class of executed instruction
system.cpu3.op_class::FloatCvt                      0      0.00%     70.94% # Class of executed instruction
system.cpu3.op_class::FloatMult                     0      0.00%     70.94% # Class of executed instruction
system.cpu3.op_class::FloatDiv                      0      0.00%     70.94% # Class of executed instruction
system.cpu3.op_class::FloatSqrt                     0      0.00%     70.94% # Class of executed instruction
system.cpu3.op_class::SimdAdd                       0      0.00%     70.94% # Class of executed instruction
system.cpu3.op_class::SimdAddAcc                    0      0.00%     70.94% # Class of executed instruction
system.cpu3.op_class::SimdAlu                       0      0.00%     70.94% # Class of executed instruction
system.cpu3.op_class::SimdCmp                       0      0.00%     70.94% # Class of executed instruction
system.cpu3.op_class::SimdCvt                       0      0.00%     70.94% # Class of executed instruction
system.cpu3.op_class::SimdMisc                      0      0.00%     70.94% # Class of executed instruction
system.cpu3.op_class::SimdMult                      0      0.00%     70.94% # Class of executed instruction
system.cpu3.op_class::SimdMultAcc                   0      0.00%     70.94% # Class of executed instruction
system.cpu3.op_class::SimdShift                     0      0.00%     70.94% # Class of executed instruction
system.cpu3.op_class::SimdShiftAcc                  0      0.00%     70.94% # Class of executed instruction
system.cpu3.op_class::SimdSqrt                      0      0.00%     70.94% # Class of executed instruction
system.cpu3.op_class::SimdFloatAdd                  0      0.00%     70.94% # Class of executed instruction
system.cpu3.op_class::SimdFloatAlu                  0      0.00%     70.94% # Class of executed instruction
system.cpu3.op_class::SimdFloatCmp                  0      0.00%     70.94% # Class of executed instruction
system.cpu3.op_class::SimdFloatCvt                  0      0.00%     70.94% # Class of executed instruction
system.cpu3.op_class::SimdFloatDiv                  0      0.00%     70.94% # Class of executed instruction
system.cpu3.op_class::SimdFloatMisc                 0      0.00%     70.94% # Class of executed instruction
system.cpu3.op_class::SimdFloatMult                 0      0.00%     70.94% # Class of executed instruction
system.cpu3.op_class::SimdFloatMultAcc              0      0.00%     70.94% # Class of executed instruction
system.cpu3.op_class::SimdFloatSqrt                 0      0.00%     70.94% # Class of executed instruction
system.cpu3.op_class::MemRead                 2600147     22.62%     93.56% # Class of executed instruction
system.cpu3.op_class::MemWrite                 740675      6.44%    100.00% # Class of executed instruction
system.cpu3.op_class::IprAccess                     0      0.00%    100.00% # Class of executed instruction
system.cpu3.op_class::InstPrefetch                  0      0.00%    100.00% # Class of executed instruction
system.cpu3.op_class::total                  11496072                       # Class of executed instruction
system.ruby.clk_domain.clock                      500                       # Clock period in ticks
system.ruby.delayHist::bucket_size           67108864                       # delay histogram for all message
system.ruby.delayHist::max_bucket           671088639                       # delay histogram for all message
system.ruby.delayHist::samples                6397254                       # delay histogram for all message
system.ruby.delayHist::mean              204630175.632427                       # delay histogram for all message
system.ruby.delayHist::gmean             164388837.214941                       # delay histogram for all message
system.ruby.delayHist::stdev             92876157.271867                       # delay histogram for all message
system.ruby.delayHist                    |      623399      9.74%      9.74% |     1094973     17.12%     26.86% |     1023558     16.00%     42.86% |     1472041     23.01%     65.87% |     2165983     33.86%     99.73% |       17300      0.27%    100.00% |           0      0.00%    100.00% |           0      0.00%    100.00% |           0      0.00%    100.00% |           0      0.00%    100.00% # delay histogram for all message
system.ruby.delayHist::total                  6397254                       # delay histogram for all message
system.ruby.outstanding_req_hist::bucket_size            1                      
system.ruby.outstanding_req_hist::max_bucket            9                      
system.ruby.outstanding_req_hist::samples     91113196                      
system.ruby.outstanding_req_hist::mean              1                      
system.ruby.outstanding_req_hist::gmean             1                      
system.ruby.outstanding_req_hist         |           0      0.00%      0.00% |    91113196    100.00%    100.00% |           0      0.00%    100.00% |           0      0.00%    100.00% |           0      0.00%    100.00% |           0      0.00%    100.00% |           0      0.00%    100.00% |           0      0.00%    100.00% |           0      0.00%    100.00% |           0      0.00%    100.00%
system.ruby.outstanding_req_hist::total      91113196                      
system.ruby.latency_hist::bucket_size             128                      
system.ruby.latency_hist::max_bucket             1279                      
system.ruby.latency_hist::samples            91113196                      
system.ruby.latency_hist::mean               5.469989                      
system.ruby.latency_hist::gmean              3.141303                      
system.ruby.latency_hist::stdev             26.131835                      
system.ruby.latency_hist                 |    90268661     99.07%     99.07% |      477061      0.52%     99.60% |      279484      0.31%     99.90% |       86825      0.10%    100.00% |         910      0.00%    100.00% |         202      0.00%    100.00% |          31      0.00%    100.00% |          21      0.00%    100.00% |           1      0.00%    100.00% |           0      0.00%    100.00%
system.ruby.latency_hist::total              91113196                      
system.ruby.hit_latency_hist::bucket_size          128                      
system.ruby.hit_latency_hist::max_bucket         1279                      
system.ruby.hit_latency_hist::samples          843053                      
system.ruby.hit_latency_hist::mean         247.058534                      
system.ruby.hit_latency_hist::gmean        220.844607                      
system.ruby.hit_latency_hist::stdev        107.982851                      
system.ruby.hit_latency_hist             |      108691     12.89%     12.89% |      367102     43.54%     56.44% |      279314     33.13%     89.57% |       86783     10.29%     99.86% |         908      0.11%     99.97% |         202      0.02%     99.99% |          31      0.00%    100.00% |          21      0.00%    100.00% |           1      0.00%    100.00% |           0      0.00%    100.00%
system.ruby.hit_latency_hist::total            843053                      
system.ruby.miss_latency_hist::bucket_size           64                      
system.ruby.miss_latency_hist::max_bucket          639                      
system.ruby.miss_latency_hist::samples       90270143                      
system.ruby.miss_latency_hist::mean          3.213740                      
system.ruby.miss_latency_hist::gmean         3.018982                      
system.ruby.miss_latency_hist::stdev         5.493422                      
system.ruby.miss_latency_hist            |    90139531     99.86%     99.86% |       20439      0.02%     99.88% |      105771      0.12%    100.00% |        4188      0.00%    100.00% |          42      0.00%    100.00% |         128      0.00%    100.00% |          42      0.00%    100.00% |           0      0.00%    100.00% |           2      0.00%    100.00% |           0      0.00%    100.00%
system.ruby.miss_latency_hist::total         90270143                      
system.ruby.l1_cntrl0.Dcache.demand_hits      9777252                       # Number of cache demand hits
system.ruby.l1_cntrl0.Dcache.demand_misses       543553                       # Number of cache demand misses
system.ruby.l1_cntrl0.Dcache.invalid_hits            0                       # Number of invalid  hits
system.ruby.l1_cntrl0.Dcache.actual_misses            0                       # Number of actual misses; not read from SVC
system.ruby.l1_cntrl0.Dcache.stale_hits             0                       # Number of stale value hits
system.ruby.l1_cntrl0.Dcache.approx_loads            0                       # Number of approx loads
system.ruby.l1_cntrl0.Dcache.approx_stores            0                       # Number of approx stores
system.ruby.l1_cntrl0.Dcache.approx_load_hits            0                       # Number of approx load hits
system.ruby.l1_cntrl0.Dcache.approx_store_hits            0                       # Number of approx store hits
system.ruby.l1_cntrl0.Dcache.approx_load_misses            0                       # Number of approx load misses
system.ruby.l1_cntrl0.Dcache.approx_store_misses            0                       # Number of approx store misses
system.ruby.l1_cntrl0.Dcache.loads                  0                       # Number of loads
system.ruby.l1_cntrl0.Dcache.stores                 0                       # Number of stores
system.ruby.l1_cntrl0.Dcache.load_hits              0                       # Number of load hits
system.ruby.l1_cntrl0.Dcache.store_hits             0                       # Number of store hits
system.ruby.l1_cntrl0.Dcache.load_misses            0                       # Number of  load misses
system.ruby.l1_cntrl0.Dcache.store_misses            0                       # Number of store misses
system.ruby.l1_cntrl0.Dcache.demand_accesses     10320805                       # Number of cache demand accesses
system.ruby.l1_cntrl0.Icache.demand_hits     37659560                       # Number of cache demand hits
system.ruby.l1_cntrl0.Icache.demand_misses        20415                       # Number of cache demand misses
system.ruby.l1_cntrl0.Icache.invalid_hits            0                       # Number of invalid  hits
system.ruby.l1_cntrl0.Icache.actual_misses            0                       # Number of actual misses; not read from SVC
system.ruby.l1_cntrl0.Icache.stale_hits             0                       # Number of stale value hits
system.ruby.l1_cntrl0.Icache.approx_loads            0                       # Number of approx loads
system.ruby.l1_cntrl0.Icache.approx_stores            0                       # Number of approx stores
system.ruby.l1_cntrl0.Icache.approx_load_hits            0                       # Number of approx load hits
system.ruby.l1_cntrl0.Icache.approx_store_hits            0                       # Number of approx store hits
system.ruby.l1_cntrl0.Icache.approx_load_misses            0                       # Number of approx load misses
system.ruby.l1_cntrl0.Icache.approx_store_misses            0                       # Number of approx store misses
system.ruby.l1_cntrl0.Icache.loads                  0                       # Number of loads
system.ruby.l1_cntrl0.Icache.stores                 0                       # Number of stores
system.ruby.l1_cntrl0.Icache.load_hits              0                       # Number of load hits
system.ruby.l1_cntrl0.Icache.store_hits             0                       # Number of store hits
system.ruby.l1_cntrl0.Icache.load_misses            0                       # Number of  load misses
system.ruby.l1_cntrl0.Icache.store_misses            0                       # Number of store misses
system.ruby.l1_cntrl0.Icache.demand_accesses     37679975                       # Number of cache demand accesses
system.ruby.l1_cntrl0.sequencer.ifetch       37679975                       # Number of ifetch
system.ruby.l1_cntrl0.sequencer.loads         7113076                       # Number of loads
system.ruby.l1_cntrl0.sequencer.stores        3271300                       # Number of loads
system.ruby.l1_cntrl0.sequencer.approx_loads            0                       # Number of approx loads
system.ruby.l1_cntrl0.sequencer.approx_stores            0                       # Number of approx stores
system.ruby.l1_cntrl0.sequencer.coherence_inv            2                       # Number of coherence invs
system.ruby.l1_cntrl0.sequencer.approx_coherence_inv            0                       # Number of approx coherence invs
system.ruby.l1_cntrl0.sequencer.coherence_inv_approx            0                       # Number of coherence invs of approximate data
system.ruby.l1_cntrl0.sequencer.Istate_othergetM        52253                       # Number of times othergetM is sent to an entry in I state. So no invalidations
system.ruby.l1_cntrl0.sequencer.m_0_01_count            0                       # Number of coherence invs
system.ruby.l1_cntrl0.sequencer.m_0_1_count            0                       # Number of coherence invs
system.ruby.l1_cntrl0.sequencer.m_1_count            0                       # Number of coherence invs
system.ruby.l1_cntrl0.sequencer.m_5_count            0                       # Number of coherence invs
system.ruby.l1_cntrl0.sequencer.m_10_count            0                       # Number of coherence invs
system.ruby.l1_cntrl0.sequencer.m_greater_count            0                       # Number of coherence invs with error >= 10
system.ruby.l1_cntrl0.sequencer.m_old_value_zero            0                       # Number of times old vale is zero, so no error percent calculated
system.ruby.l1_cntrl0.sequencer.m_intermediate_state_diff_check            0                       # Number of times when inv is sent to entries in SM_AD,SM_D,SM_DS - diff_check done with value in cache entry
system.ruby.l1_cntrl0.sequencer.m_I_state_no_diff_check            0                       # Number of times when inv is sent to entries in IS_D,IM_D,IM_DS - no diff_check done
system.ruby.l1_cntrl0.sequencer.invdata_bit_set            0                       # Number of cache lines whose invdata bit is set
system.ruby.l1_cntrl0.sequencer.svc_allocated            0                       # Number of svc blocks allocated
system.ruby.l1_cntrl0.sequencer.svc_deallocated_avail            0                       # Number of svc blocks deallocated because svc is full
system.ruby.l1_cntrl0.sequencer.svc_deallocated_timeout            0                       # Number of svc blocks deallocated due to timeout
system.ruby.l1_cntrl0.sequencer.svc_deallocated            0                       # Number of svc blocks deallocated
system.ruby.l1_cntrl0.sequencer.avg_time_between_mem            0                       # Average time between requests to the same mem location
system.ruby.l1_cntrl1.Dcache.demand_hits      3055734                       # Number of cache demand hits
system.ruby.l1_cntrl1.Dcache.demand_misses        94759                       # Number of cache demand misses
system.ruby.l1_cntrl1.Dcache.invalid_hits            0                       # Number of invalid  hits
system.ruby.l1_cntrl1.Dcache.actual_misses            0                       # Number of actual misses; not read from SVC
system.ruby.l1_cntrl1.Dcache.stale_hits             0                       # Number of stale value hits
system.ruby.l1_cntrl1.Dcache.approx_loads            0                       # Number of approx loads
system.ruby.l1_cntrl1.Dcache.approx_stores            0                       # Number of approx stores
system.ruby.l1_cntrl1.Dcache.approx_load_hits            0                       # Number of approx load hits
system.ruby.l1_cntrl1.Dcache.approx_store_hits            0                       # Number of approx store hits
system.ruby.l1_cntrl1.Dcache.approx_load_misses            0                       # Number of approx load misses
system.ruby.l1_cntrl1.Dcache.approx_store_misses            0                       # Number of approx store misses
system.ruby.l1_cntrl1.Dcache.loads                  0                       # Number of loads
system.ruby.l1_cntrl1.Dcache.stores                 0                       # Number of stores
system.ruby.l1_cntrl1.Dcache.load_hits              0                       # Number of load hits
system.ruby.l1_cntrl1.Dcache.store_hits             0                       # Number of store hits
system.ruby.l1_cntrl1.Dcache.load_misses            0                       # Number of  load misses
system.ruby.l1_cntrl1.Dcache.store_misses            0                       # Number of store misses
system.ruby.l1_cntrl1.Dcache.demand_accesses      3150493                       # Number of cache demand accesses
system.ruby.l1_cntrl1.Icache.demand_hits     11095816                       # Number of cache demand hits
system.ruby.l1_cntrl1.Icache.demand_misses         1553                       # Number of cache demand misses
system.ruby.l1_cntrl1.Icache.invalid_hits            0                       # Number of invalid  hits
system.ruby.l1_cntrl1.Icache.actual_misses            0                       # Number of actual misses; not read from SVC
system.ruby.l1_cntrl1.Icache.stale_hits             0                       # Number of stale value hits
system.ruby.l1_cntrl1.Icache.approx_loads            0                       # Number of approx loads
system.ruby.l1_cntrl1.Icache.approx_stores            0                       # Number of approx stores
system.ruby.l1_cntrl1.Icache.approx_load_hits            0                       # Number of approx load hits
system.ruby.l1_cntrl1.Icache.approx_store_hits            0                       # Number of approx store hits
system.ruby.l1_cntrl1.Icache.approx_load_misses            0                       # Number of approx load misses
system.ruby.l1_cntrl1.Icache.approx_store_misses            0                       # Number of approx store misses
system.ruby.l1_cntrl1.Icache.loads                  0                       # Number of loads
system.ruby.l1_cntrl1.Icache.stores                 0                       # Number of stores
system.ruby.l1_cntrl1.Icache.load_hits              0                       # Number of load hits
system.ruby.l1_cntrl1.Icache.store_hits             0                       # Number of store hits
system.ruby.l1_cntrl1.Icache.load_misses            0                       # Number of  load misses
system.ruby.l1_cntrl1.Icache.store_misses            0                       # Number of store misses
system.ruby.l1_cntrl1.Icache.demand_accesses     11097369                       # Number of cache demand accesses
system.ruby.l1_cntrl1.sequencer.ifetch       11097369                       # Number of ifetch
system.ruby.l1_cntrl1.sequencer.loads         2496295                       # Number of loads
system.ruby.l1_cntrl1.sequencer.stores         681370                       # Number of loads
system.ruby.l1_cntrl1.sequencer.approx_loads            0                       # Number of approx loads
system.ruby.l1_cntrl1.sequencer.approx_stores            0                       # Number of approx stores
system.ruby.l1_cntrl1.sequencer.coherence_inv            4                       # Number of coherence invs
system.ruby.l1_cntrl1.sequencer.approx_coherence_inv            0                       # Number of approx coherence invs
system.ruby.l1_cntrl1.sequencer.coherence_inv_approx            0                       # Number of coherence invs of approximate data
system.ruby.l1_cntrl1.sequencer.Istate_othergetM       206307                       # Number of times othergetM is sent to an entry in I state. So no invalidations
system.ruby.l1_cntrl1.sequencer.m_0_01_count            0                       # Number of coherence invs
system.ruby.l1_cntrl1.sequencer.m_0_1_count            0                       # Number of coherence invs
system.ruby.l1_cntrl1.sequencer.m_1_count            0                       # Number of coherence invs
system.ruby.l1_cntrl1.sequencer.m_5_count            0                       # Number of coherence invs
system.ruby.l1_cntrl1.sequencer.m_10_count            0                       # Number of coherence invs
system.ruby.l1_cntrl1.sequencer.m_greater_count            0                       # Number of coherence invs with error >= 10
system.ruby.l1_cntrl1.sequencer.m_old_value_zero            0                       # Number of times old vale is zero, so no error percent calculated
system.ruby.l1_cntrl1.sequencer.m_intermediate_state_diff_check            0                       # Number of times when inv is sent to entries in SM_AD,SM_D,SM_DS - diff_check done with value in cache entry
system.ruby.l1_cntrl1.sequencer.m_I_state_no_diff_check            2                       # Number of times when inv is sent to entries in IS_D,IM_D,IM_DS - no diff_check done
system.ruby.l1_cntrl1.sequencer.invdata_bit_set            0                       # Number of cache lines whose invdata bit is set
system.ruby.l1_cntrl1.sequencer.svc_allocated            0                       # Number of svc blocks allocated
system.ruby.l1_cntrl1.sequencer.svc_deallocated_avail            0                       # Number of svc blocks deallocated because svc is full
system.ruby.l1_cntrl1.sequencer.svc_deallocated_timeout            0                       # Number of svc blocks deallocated due to timeout
system.ruby.l1_cntrl1.sequencer.svc_deallocated            0                       # Number of svc blocks deallocated
system.ruby.l1_cntrl1.sequencer.avg_time_between_mem            0                       # Average time between requests to the same mem location
system.ruby.l1_cntrl2.Dcache.demand_hits      3106415                       # Number of cache demand hits
system.ruby.l1_cntrl2.Dcache.demand_misses        89240                       # Number of cache demand misses
system.ruby.l1_cntrl2.Dcache.invalid_hits            0                       # Number of invalid  hits
system.ruby.l1_cntrl2.Dcache.actual_misses            0                       # Number of actual misses; not read from SVC
system.ruby.l1_cntrl2.Dcache.stale_hits             0                       # Number of stale value hits
system.ruby.l1_cntrl2.Dcache.approx_loads            0                       # Number of approx loads
system.ruby.l1_cntrl2.Dcache.approx_stores            0                       # Number of approx stores
system.ruby.l1_cntrl2.Dcache.approx_load_hits            0                       # Number of approx load hits
system.ruby.l1_cntrl2.Dcache.approx_store_hits            0                       # Number of approx store hits
system.ruby.l1_cntrl2.Dcache.approx_load_misses            0                       # Number of approx load misses
system.ruby.l1_cntrl2.Dcache.approx_store_misses            0                       # Number of approx store misses
system.ruby.l1_cntrl2.Dcache.loads                  0                       # Number of loads
system.ruby.l1_cntrl2.Dcache.stores                 0                       # Number of stores
system.ruby.l1_cntrl2.Dcache.load_hits              0                       # Number of load hits
system.ruby.l1_cntrl2.Dcache.store_hits             0                       # Number of store hits
system.ruby.l1_cntrl2.Dcache.load_misses            0                       # Number of  load misses
system.ruby.l1_cntrl2.Dcache.store_misses            0                       # Number of store misses
system.ruby.l1_cntrl2.Dcache.demand_accesses      3195655                       # Number of cache demand accesses
system.ruby.l1_cntrl2.Icache.demand_hits     11232192                       # Number of cache demand hits
system.ruby.l1_cntrl2.Icache.demand_misses         1494                       # Number of cache demand misses
system.ruby.l1_cntrl2.Icache.invalid_hits            0                       # Number of invalid  hits
system.ruby.l1_cntrl2.Icache.actual_misses            0                       # Number of actual misses; not read from SVC
system.ruby.l1_cntrl2.Icache.stale_hits             0                       # Number of stale value hits
system.ruby.l1_cntrl2.Icache.approx_loads            0                       # Number of approx loads
system.ruby.l1_cntrl2.Icache.approx_stores            0                       # Number of approx stores
system.ruby.l1_cntrl2.Icache.approx_load_hits            0                       # Number of approx load hits
system.ruby.l1_cntrl2.Icache.approx_store_hits            0                       # Number of approx store hits
system.ruby.l1_cntrl2.Icache.approx_load_misses            0                       # Number of approx load misses
system.ruby.l1_cntrl2.Icache.approx_store_misses            0                       # Number of approx store misses
system.ruby.l1_cntrl2.Icache.loads                  0                       # Number of loads
system.ruby.l1_cntrl2.Icache.stores                 0                       # Number of stores
system.ruby.l1_cntrl2.Icache.load_hits              0                       # Number of load hits
system.ruby.l1_cntrl2.Icache.store_hits             0                       # Number of store hits
system.ruby.l1_cntrl2.Icache.load_misses            0                       # Number of  load misses
system.ruby.l1_cntrl2.Icache.store_misses            0                       # Number of store misses
system.ruby.l1_cntrl2.Icache.demand_accesses     11233686                       # Number of cache demand accesses
system.ruby.l1_cntrl2.sequencer.ifetch       11233686                       # Number of ifetch
system.ruby.l1_cntrl2.sequencer.loads         2620361                       # Number of loads
system.ruby.l1_cntrl2.sequencer.stores         600622                       # Number of loads
system.ruby.l1_cntrl2.sequencer.approx_loads            0                       # Number of approx loads
system.ruby.l1_cntrl2.sequencer.approx_stores            0                       # Number of approx stores
system.ruby.l1_cntrl2.sequencer.coherence_inv            4                       # Number of coherence invs
system.ruby.l1_cntrl2.sequencer.approx_coherence_inv            0                       # Number of approx coherence invs
system.ruby.l1_cntrl2.sequencer.coherence_inv_approx            0                       # Number of coherence invs of approximate data
system.ruby.l1_cntrl2.sequencer.Istate_othergetM       202827                       # Number of times othergetM is sent to an entry in I state. So no invalidations
system.ruby.l1_cntrl2.sequencer.m_0_01_count            0                       # Number of coherence invs
system.ruby.l1_cntrl2.sequencer.m_0_1_count            0                       # Number of coherence invs
system.ruby.l1_cntrl2.sequencer.m_1_count            0                       # Number of coherence invs
system.ruby.l1_cntrl2.sequencer.m_5_count            0                       # Number of coherence invs
system.ruby.l1_cntrl2.sequencer.m_10_count            0                       # Number of coherence invs
system.ruby.l1_cntrl2.sequencer.m_greater_count            0                       # Number of coherence invs with error >= 10
system.ruby.l1_cntrl2.sequencer.m_old_value_zero            0                       # Number of times old vale is zero, so no error percent calculated
system.ruby.l1_cntrl2.sequencer.m_intermediate_state_diff_check            0                       # Number of times when inv is sent to entries in SM_AD,SM_D,SM_DS - diff_check done with value in cache entry
system.ruby.l1_cntrl2.sequencer.m_I_state_no_diff_check            2                       # Number of times when inv is sent to entries in IS_D,IM_D,IM_DS - no diff_check done
system.ruby.l1_cntrl2.sequencer.invdata_bit_set            0                       # Number of cache lines whose invdata bit is set
system.ruby.l1_cntrl2.sequencer.svc_allocated            0                       # Number of svc blocks allocated
system.ruby.l1_cntrl2.sequencer.svc_deallocated_avail            0                       # Number of svc blocks deallocated because svc is full
system.ruby.l1_cntrl2.sequencer.svc_deallocated_timeout            0                       # Number of svc blocks deallocated due to timeout
system.ruby.l1_cntrl2.sequencer.svc_deallocated            0                       # Number of svc blocks deallocated
system.ruby.l1_cntrl2.sequencer.avg_time_between_mem            0                       # Average time between requests to the same mem location
system.ruby.l1_cntrl3.Dcache.demand_hits      3222544                       # Number of cache demand hits
system.ruby.l1_cntrl3.Dcache.demand_misses        90355                       # Number of cache demand misses
system.ruby.l1_cntrl3.Dcache.invalid_hits            0                       # Number of invalid  hits
system.ruby.l1_cntrl3.Dcache.actual_misses            0                       # Number of actual misses; not read from SVC
system.ruby.l1_cntrl3.Dcache.stale_hits             0                       # Number of stale value hits
system.ruby.l1_cntrl3.Dcache.approx_loads            0                       # Number of approx loads
system.ruby.l1_cntrl3.Dcache.approx_stores            0                       # Number of approx stores
system.ruby.l1_cntrl3.Dcache.approx_load_hits            0                       # Number of approx load hits
system.ruby.l1_cntrl3.Dcache.approx_store_hits            0                       # Number of approx store hits
system.ruby.l1_cntrl3.Dcache.approx_load_misses            0                       # Number of approx load misses
system.ruby.l1_cntrl3.Dcache.approx_store_misses            0                       # Number of approx store misses
system.ruby.l1_cntrl3.Dcache.loads                  0                       # Number of loads
system.ruby.l1_cntrl3.Dcache.stores                 0                       # Number of stores
system.ruby.l1_cntrl3.Dcache.load_hits              0                       # Number of load hits
system.ruby.l1_cntrl3.Dcache.store_hits             0                       # Number of store hits
system.ruby.l1_cntrl3.Dcache.load_misses            0                       # Number of  load misses
system.ruby.l1_cntrl3.Dcache.store_misses            0                       # Number of store misses
system.ruby.l1_cntrl3.Dcache.demand_accesses      3312899                       # Number of cache demand accesses
system.ruby.l1_cntrl3.Icache.demand_hits     10963716                       # Number of cache demand hits
system.ruby.l1_cntrl3.Icache.demand_misses         2490                       # Number of cache demand misses
system.ruby.l1_cntrl3.Icache.invalid_hits            0                       # Number of invalid  hits
system.ruby.l1_cntrl3.Icache.actual_misses            0                       # Number of actual misses; not read from SVC
system.ruby.l1_cntrl3.Icache.stale_hits             0                       # Number of stale value hits
system.ruby.l1_cntrl3.Icache.approx_loads            0                       # Number of approx loads
system.ruby.l1_cntrl3.Icache.approx_stores            0                       # Number of approx stores
system.ruby.l1_cntrl3.Icache.approx_load_hits            0                       # Number of approx load hits
system.ruby.l1_cntrl3.Icache.approx_store_hits            0                       # Number of approx store hits
system.ruby.l1_cntrl3.Icache.approx_load_misses            0                       # Number of approx load misses
system.ruby.l1_cntrl3.Icache.approx_store_misses            0                       # Number of approx store misses
system.ruby.l1_cntrl3.Icache.loads                  0                       # Number of loads
system.ruby.l1_cntrl3.Icache.stores                 0                       # Number of stores
system.ruby.l1_cntrl3.Icache.load_hits              0                       # Number of load hits
system.ruby.l1_cntrl3.Icache.store_hits             0                       # Number of store hits
system.ruby.l1_cntrl3.Icache.load_misses            0                       # Number of  load misses
system.ruby.l1_cntrl3.Icache.store_misses            0                       # Number of store misses
system.ruby.l1_cntrl3.Icache.demand_accesses     10966206                       # Number of cache demand accesses
system.ruby.l1_cntrl3.sequencer.ifetch       10966206                       # Number of ifetch
system.ruby.l1_cntrl3.sequencer.loads         2577435                       # Number of loads
system.ruby.l1_cntrl3.sequencer.stores         762459                       # Number of loads
system.ruby.l1_cntrl3.sequencer.approx_loads            0                       # Number of approx loads
system.ruby.l1_cntrl3.sequencer.approx_stores            0                       # Number of approx stores
system.ruby.l1_cntrl3.sequencer.coherence_inv            2                       # Number of coherence invs
system.ruby.l1_cntrl3.sequencer.approx_coherence_inv            0                       # Number of approx coherence invs
system.ruby.l1_cntrl3.sequencer.coherence_inv_approx            0                       # Number of coherence invs of approximate data
system.ruby.l1_cntrl3.sequencer.Istate_othergetM       204634                       # Number of times othergetM is sent to an entry in I state. So no invalidations
system.ruby.l1_cntrl3.sequencer.m_0_01_count            0                       # Number of coherence invs
system.ruby.l1_cntrl3.sequencer.m_0_1_count            0                       # Number of coherence invs
system.ruby.l1_cntrl3.sequencer.m_1_count            0                       # Number of coherence invs
system.ruby.l1_cntrl3.sequencer.m_5_count            0                       # Number of coherence invs
system.ruby.l1_cntrl3.sequencer.m_10_count            0                       # Number of coherence invs
system.ruby.l1_cntrl3.sequencer.m_greater_count            0                       # Number of coherence invs with error >= 10
system.ruby.l1_cntrl3.sequencer.m_old_value_zero            0                       # Number of times old vale is zero, so no error percent calculated
system.ruby.l1_cntrl3.sequencer.m_intermediate_state_diff_check            0                       # Number of times when inv is sent to entries in SM_AD,SM_D,SM_DS - diff_check done with value in cache entry
system.ruby.l1_cntrl3.sequencer.m_I_state_no_diff_check            1                       # Number of times when inv is sent to entries in IS_D,IM_D,IM_DS - no diff_check done
system.ruby.l1_cntrl3.sequencer.invdata_bit_set            0                       # Number of cache lines whose invdata bit is set
system.ruby.l1_cntrl3.sequencer.svc_allocated            0                       # Number of svc blocks allocated
system.ruby.l1_cntrl3.sequencer.svc_deallocated_avail            0                       # Number of svc blocks deallocated because svc is full
system.ruby.l1_cntrl3.sequencer.svc_deallocated_timeout            0                       # Number of svc blocks deallocated due to timeout
system.ruby.l1_cntrl3.sequencer.svc_deallocated            0                       # Number of svc blocks deallocated
system.ruby.l1_cntrl3.sequencer.avg_time_between_mem            0                       # Average time between requests to the same mem location
system.ruby.memctrl_clk_domain.clock             1500                       # Clock period in ticks
system.ruby.network.routers0.percent_links_utilized     0.562128                      
system.ruby.network.routers0.msg_count.Control::2      1638316                      
system.ruby.network.routers0.msg_count.Control::4       244383                      
system.ruby.network.routers0.msg_count.Control::5        13156                      
system.ruby.network.routers0.msg_count.Control::6       623086                      
system.ruby.network.routers0.msg_count.Response_Data::4       563689                      
system.ruby.network.routers0.msg_bytes.Control::2     13106528                      
system.ruby.network.routers0.msg_bytes.Control::4      1955064                      
system.ruby.network.routers0.msg_bytes.Control::5       105248                      
system.ruby.network.routers0.msg_bytes.Control::6      4984688                      
system.ruby.network.routers0.msg_bytes.Response_Data::4     40585608                      
system.ruby.network.routers1.percent_links_utilized     0.182789                      
system.ruby.network.routers1.msg_count.Control::2      1124091                      
system.ruby.network.routers1.msg_count.Control::4        43617                      
system.ruby.network.routers1.msg_count.Control::5        13156                      
system.ruby.network.routers1.msg_count.Control::6       422320                      
system.ruby.network.routers1.msg_count.Response_Data::4        96176                      
system.ruby.network.routers1.msg_bytes.Control::2      8992728                      
system.ruby.network.routers1.msg_bytes.Control::4       348936                      
system.ruby.network.routers1.msg_bytes.Control::5       105248                      
system.ruby.network.routers1.msg_bytes.Control::6      3378560                      
system.ruby.network.routers1.msg_bytes.Response_Data::4      6924672                      
system.ruby.network.routers2.percent_links_utilized     0.178754                      
system.ruby.network.routers2.msg_count.Control::2      1116693                      
system.ruby.network.routers2.msg_count.Control::4        45319                      
system.ruby.network.routers2.msg_count.Control::5        13156                      
system.ruby.network.routers2.msg_count.Control::6       424022                      
system.ruby.network.routers2.msg_count.Response_Data::4        90564                      
system.ruby.network.routers2.msg_bytes.Control::2      8933544                      
system.ruby.network.routers2.msg_bytes.Control::4       362552                      
system.ruby.network.routers2.msg_bytes.Control::5       105248                      
system.ruby.network.routers2.msg_bytes.Control::6      3392176                      
system.ruby.network.routers2.msg_bytes.Response_Data::4      6520608                      
system.ruby.network.routers3.percent_links_utilized     0.180471                      
system.ruby.network.routers3.msg_count.Control::2      1120735                      
system.ruby.network.routers3.msg_count.Control::4        45384                      
system.ruby.network.routers3.msg_count.Control::5        13156                      
system.ruby.network.routers3.msg_count.Control::6       424087                      
system.ruby.network.routers3.msg_count.Response_Data::4        92677                      
system.ruby.network.routers3.msg_bytes.Control::2      8965880                      
system.ruby.network.routers3.msg_bytes.Control::4       363072                      
system.ruby.network.routers3.msg_bytes.Control::5       105248                      
system.ruby.network.routers3.msg_bytes.Control::6      3392696                      
system.ruby.network.routers3.msg_bytes.Response_Data::4      6672744                      
system.ruby.network.routers4.percent_links_utilized    -0.162412                      
system.ruby.network.routers4.msg_count.Control::2       999967                      
system.ruby.network.routers4.msg_count.Control::4       378703                      
system.ruby.network.routers4.msg_count.Control::6       378703                      
system.ruby.network.routers4.msg_count.Response_Data::4       843106                      
system.ruby.network.routers4.msg_bytes.Control::2      7999736                      
system.ruby.network.routers4.msg_bytes.Control::4      3029624                      
system.ruby.network.routers4.msg_bytes.Control::6      3029624                      
system.ruby.network.routers4.msg_bytes.Response_Data::4     60703632                      
system.ruby.network.routers5.percent_links_utilized     0.441267                      
system.ruby.network.routers5.msg_count.Control::2      4999835                      
system.ruby.network.routers5.msg_count.Control::4       378703                      
system.ruby.network.routers5.msg_count.Control::5        39468                      
system.ruby.network.routers5.msg_count.Control::6      1893515                      
system.ruby.network.routers5.msg_count.Response_Data::4       843106                      
system.ruby.network.routers5.msg_bytes.Control::2     39998680                      
system.ruby.network.routers5.msg_bytes.Control::4      3029624                      
system.ruby.network.routers5.msg_bytes.Control::5       315744                      
system.ruby.network.routers5.msg_bytes.Control::6     15148120                      
system.ruby.network.routers5.msg_bytes.Response_Data::4     60703632                      
system.ruby.network.msg_count.Control        16393571                      
system.ruby.network.msg_count.Response_Data      2529318                      
system.ruby.network.msg_byte.Control        131148568                      
system.ruby.network.msg_byte.Response_Data    182110896                      
system.ruby.network.routers0.throttle0.link_utilization     0.955748                      
system.ruby.network.routers0.throttle0.msg_count.Control::2       999967                      
system.ruby.network.routers0.throttle0.msg_count.Control::5         2336                      
system.ruby.network.routers0.throttle0.msg_count.Control::6       378703                      
system.ruby.network.routers0.throttle0.msg_count.Response_Data::4       563689                      
system.ruby.network.routers0.throttle0.msg_bytes.Control::2      7999736                      
system.ruby.network.routers0.throttle0.msg_bytes.Control::5        18688                      
system.ruby.network.routers0.throttle0.msg_bytes.Control::6      3029624                      
system.ruby.network.routers0.throttle0.msg_bytes.Response_Data::4     40585608                      
system.ruby.network.routers0.throttle1.link_utilization     0.168507                      
system.ruby.network.routers0.throttle1.msg_count.Control::2       638349                      
system.ruby.network.routers0.throttle1.msg_count.Control::4       244383                      
system.ruby.network.routers0.throttle1.msg_count.Control::5        10820                      
system.ruby.network.routers0.throttle1.msg_count.Control::6       244383                      
system.ruby.network.routers0.throttle1.msg_bytes.Control::2      5106792                      
system.ruby.network.routers0.throttle1.msg_bytes.Control::4      1955064                      
system.ruby.network.routers0.throttle1.msg_bytes.Control::5        86560                      
system.ruby.network.routers0.throttle1.msg_bytes.Control::6      1955064                      
system.ruby.network.routers1.throttle0.link_utilization     0.334182                      
system.ruby.network.routers1.throttle0.msg_count.Control::2       999967                      
system.ruby.network.routers1.throttle0.msg_count.Control::5        12488                      
system.ruby.network.routers1.throttle0.msg_count.Control::6       378703                      
system.ruby.network.routers1.throttle0.msg_count.Response_Data::4        96176                      
system.ruby.network.routers1.throttle0.msg_bytes.Control::2      7999736                      
system.ruby.network.routers1.throttle0.msg_bytes.Control::5        99904                      
system.ruby.network.routers1.throttle0.msg_bytes.Control::6      3029624                      
system.ruby.network.routers1.throttle0.msg_bytes.Response_Data::4      6924672                      
system.ruby.network.routers1.throttle1.link_utilization     0.031397                      
system.ruby.network.routers1.throttle1.msg_count.Control::2       124124                      
system.ruby.network.routers1.throttle1.msg_count.Control::4        43617                      
system.ruby.network.routers1.throttle1.msg_count.Control::5          668                      
system.ruby.network.routers1.throttle1.msg_count.Control::6        43617                      
system.ruby.network.routers1.throttle1.msg_bytes.Control::2       992992                      
system.ruby.network.routers1.throttle1.msg_bytes.Control::4       348936                      
system.ruby.network.routers1.throttle1.msg_bytes.Control::5         5344                      
system.ruby.network.routers1.throttle1.msg_bytes.Control::6       348936                      
system.ruby.network.routers2.throttle0.link_utilization     0.326695                      
system.ruby.network.routers2.throttle0.msg_count.Control::2       999967                      
system.ruby.network.routers2.throttle0.msg_count.Control::5        12438                      
system.ruby.network.routers2.throttle0.msg_count.Control::6       378703                      
system.ruby.network.routers2.throttle0.msg_count.Response_Data::4        90564                      
system.ruby.network.routers2.throttle0.msg_bytes.Control::2      7999736                      
system.ruby.network.routers2.throttle0.msg_bytes.Control::5        99504                      
system.ruby.network.routers2.throttle0.msg_bytes.Control::6      3029624                      
system.ruby.network.routers2.throttle0.msg_bytes.Response_Data::4      6520608                      
system.ruby.network.routers2.throttle1.link_utilization     0.030813                      
system.ruby.network.routers2.throttle1.msg_count.Control::2       116726                      
system.ruby.network.routers2.throttle1.msg_count.Control::4        45319                      
system.ruby.network.routers2.throttle1.msg_count.Control::5          718                      
system.ruby.network.routers2.throttle1.msg_count.Control::6        45319                      
system.ruby.network.routers2.throttle1.msg_bytes.Control::2       933808                      
system.ruby.network.routers2.throttle1.msg_bytes.Control::4       362552                      
system.ruby.network.routers2.throttle1.msg_bytes.Control::5         5744                      
system.ruby.network.routers2.throttle1.msg_bytes.Control::6       362552                      
system.ruby.network.routers3.throttle0.link_utilization     0.329477                      
system.ruby.network.routers3.throttle0.msg_count.Control::2       999967                      
system.ruby.network.routers3.throttle0.msg_count.Control::5        12206                      
system.ruby.network.routers3.throttle0.msg_count.Control::6       378703                      
system.ruby.network.routers3.throttle0.msg_count.Response_Data::4        92677                      
system.ruby.network.routers3.throttle0.msg_bytes.Control::2      7999736                      
system.ruby.network.routers3.throttle0.msg_bytes.Control::5        97648                      
system.ruby.network.routers3.throttle0.msg_bytes.Control::6      3029624                      
system.ruby.network.routers3.throttle0.msg_bytes.Response_Data::4      6672744                      
system.ruby.network.routers3.throttle1.link_utilization     0.031465                      
system.ruby.network.routers3.throttle1.msg_count.Control::2       120768                      
system.ruby.network.routers3.throttle1.msg_count.Control::4        45384                      
system.ruby.network.routers3.throttle1.msg_count.Control::5          950                      
system.ruby.network.routers3.throttle1.msg_count.Control::6        45384                      
system.ruby.network.routers3.throttle1.msg_bytes.Control::2       966144                      
system.ruby.network.routers3.throttle1.msg_bytes.Control::4       363072                      
system.ruby.network.routers3.throttle1.msg_bytes.Control::5         7600                      
system.ruby.network.routers3.throttle1.msg_bytes.Control::6       363072                      
system.ruby.network.routers4.throttle0.link_utilization     0.260234                      
system.ruby.network.routers4.throttle0.msg_count.Control::2       999967                      
system.ruby.network.routers4.throttle0.msg_count.Control::4       378703                      
system.ruby.network.routers4.throttle0.msg_count.Control::6       378703                      
system.ruby.network.routers4.throttle0.msg_bytes.Control::2      7999736                      
system.ruby.network.routers4.throttle0.msg_bytes.Control::4      3029624                      
system.ruby.network.routers4.throttle0.msg_bytes.Control::6      3029624                      
system.ruby.network.routers4.throttle1.link_utilization    -0.585058                      
system.ruby.network.routers4.throttle1.msg_count.Response_Data::4       843106                      
system.ruby.network.routers4.throttle1.msg_bytes.Response_Data::4     60703632                      
system.ruby.network.routers5.throttle0.link_utilization     0.955748                      
system.ruby.network.routers5.throttle0.msg_count.Control::2       999967                      
system.ruby.network.routers5.throttle0.msg_count.Control::5         2336                      
system.ruby.network.routers5.throttle0.msg_count.Control::6       378703                      
system.ruby.network.routers5.throttle0.msg_count.Response_Data::4       563689                      
system.ruby.network.routers5.throttle0.msg_bytes.Control::2      7999736                      
system.ruby.network.routers5.throttle0.msg_bytes.Control::5        18688                      
system.ruby.network.routers5.throttle0.msg_bytes.Control::6      3029624                      
system.ruby.network.routers5.throttle0.msg_bytes.Response_Data::4     40585608                      
system.ruby.network.routers5.throttle1.link_utilization     0.334182                      
system.ruby.network.routers5.throttle1.msg_count.Control::2       999967                      
system.ruby.network.routers5.throttle1.msg_count.Control::5        12488                      
system.ruby.network.routers5.throttle1.msg_count.Control::6       378703                      
system.ruby.network.routers5.throttle1.msg_count.Response_Data::4        96176                      
system.ruby.network.routers5.throttle1.msg_bytes.Control::2      7999736                      
system.ruby.network.routers5.throttle1.msg_bytes.Control::5        99904                      
system.ruby.network.routers5.throttle1.msg_bytes.Control::6      3029624                      
system.ruby.network.routers5.throttle1.msg_bytes.Response_Data::4      6924672                      
system.ruby.network.routers5.throttle2.link_utilization     0.326695                      
system.ruby.network.routers5.throttle2.msg_count.Control::2       999967                      
system.ruby.network.routers5.throttle2.msg_count.Control::5        12438                      
system.ruby.network.routers5.throttle2.msg_count.Control::6       378703                      
system.ruby.network.routers5.throttle2.msg_count.Response_Data::4        90564                      
system.ruby.network.routers5.throttle2.msg_bytes.Control::2      7999736                      
system.ruby.network.routers5.throttle2.msg_bytes.Control::5        99504                      
system.ruby.network.routers5.throttle2.msg_bytes.Control::6      3029624                      
system.ruby.network.routers5.throttle2.msg_bytes.Response_Data::4      6520608                      
system.ruby.network.routers5.throttle3.link_utilization     0.329477                      
system.ruby.network.routers5.throttle3.msg_count.Control::2       999967                      
system.ruby.network.routers5.throttle3.msg_count.Control::5        12206                      
system.ruby.network.routers5.throttle3.msg_count.Control::6       378703                      
system.ruby.network.routers5.throttle3.msg_count.Response_Data::4        92677                      
system.ruby.network.routers5.throttle3.msg_bytes.Control::2      7999736                      
system.ruby.network.routers5.throttle3.msg_bytes.Control::5        97648                      
system.ruby.network.routers5.throttle3.msg_bytes.Control::6      3029624                      
[...]
system.ruby.L1Cache_Controller.I.Other_GETM::total       666019                      
system.ruby.L1Cache_Controller.I.Other_GETI |        3308      4.80%      4.80% |       22134     32.13%     36.93% |       22209     32.24%     69.17% |       21238     30.83%    100.00%
system.ruby.L1Cache_Controller.I.Other_GETI::total        68889                      
system.ruby.L1Cache_Controller.I.Other_PUTM |      133770     11.80%     11.80% |      334533     29.51%     41.31% |      332534     29.33%     70.64% |      332793     29.36%    100.00%
system.ruby.L1Cache_Controller.I.Other_PUTM::total      1133630                      
system.ruby.L1Cache_Controller.I.Other_UPG |       82070     17.47%     17.47% |      128666     27.39%     44.85% |      130415     27.76%     72.61% |      128666     27.39%    100.00%
system.ruby.L1Cache_Controller.I.Other_UPG::total       469817                      
system.ruby.L1Cache_Controller.I.ATOMICST |        1120      5.77%      5.77% |        6132     31.59%     37.36% |        6098     31.41%     68.77% |        6063     31.23%    100.00%
system.ruby.L1Cache_Controller.I.ATOMICST::total        19413                      
system.ruby.L1Cache_Controller.I.ATOMICEN |        1167      5.91%      5.91% |        6243     31.64%     37.56% |        6218     31.51%     69.07% |        6103     30.93%    100.00%
system.ruby.L1Cache_Controller.I.ATOMICEN::total        19731                      
system.ruby.L1Cache_Controller.S.Load    |     3185262     53.46%     53.46% |     1016061     17.05%     70.51% |      966037     16.21%     86.72% |      791220     13.28%    100.00%
system.ruby.L1Cache_Controller.S.Load::total      5958580                      
system.ruby.L1Cache_Controller.S.Store   |       74381     47.65%     47.65% |       27812     17.82%     65.46% |       25992     16.65%     82.11% |       27923     17.89%    100.00%
system.ruby.L1Cache_Controller.S.Store::total       156108                      
system.ruby.L1Cache_Controller.S.Ifetch  |    37659560     53.08%     53.08% |    11095816     15.64%     68.72% |    11232192     15.83%     84.55% |    10963716     15.45%    100.00%
system.ruby.L1Cache_Controller.S.Ifetch::total     70951284                      
system.ruby.L1Cache_Controller.S.RMW_Read |         279     37.05%     37.05% |         136     18.06%     55.11% |         170     22.58%     77.69% |         168     22.31%    100.00%
system.ruby.L1Cache_Controller.S.RMW_Read::total          753                      
system.ruby.L1Cache_Controller.S.Replacement |      319150     68.78%     68.78% |       52349     11.28%     80.06% |       45110      9.72%     89.79% |       47391     10.21%    100.00%
system.ruby.L1Cache_Controller.S.Replacement::total       464000                      
system.ruby.L1Cache_Controller.S.Other_GETS |       11140     29.85%     29.85% |        8741     23.42%     53.28% |        8789     23.55%     76.83% |        8645     23.17%    100.00%
system.ruby.L1Cache_Controller.S.Other_GETS::total        37315                      
system.ruby.L1Cache_Controller.S.Other_GETM |           2     28.57%     28.57% |           2     28.57%     57.14% |           2     28.57%     85.71% |           1     14.29%    100.00%
system.ruby.L1Cache_Controller.S.Other_GETM::total            7                      
system.ruby.L1Cache_Controller.S.Other_GETI |        2229     24.91%     24.91% |        2257     25.22%     50.13% |        2243     25.06%     75.19% |        2220     24.81%    100.00%
system.ruby.L1Cache_Controller.S.Other_GETI::total         8949                      
system.ruby.L1Cache_Controller.S.Other_UPG |         129     16.93%     16.93% |         247     32.41%     49.34% |         284     37.27%     86.61% |         102     13.39%    100.00%
system.ruby.L1Cache_Controller.S.Other_UPG::total          762                      
system.ruby.L1Cache_Controller.S.ATOMICST |          44     14.62%     14.62% |         107     35.55%     50.17% |         114     37.87%     88.04% |          36     11.96%    100.00%
system.ruby.L1Cache_Controller.S.ATOMICST::total          301                      
system.ruby.L1Cache_Controller.M.Load    |     3554290     43.06%     43.06% |     1401294     16.98%     60.04% |     1584402     19.20%     79.24% |     1713384     20.76%    100.00%
system.ruby.L1Cache_Controller.M.Load::total      8253370                      
system.ruby.L1Cache_Controller.M.Store   |     3027198     61.31%     61.31% |      637848     12.92%     74.23% |      555432     11.25%     85.48% |      717146     14.52%    100.00%
system.ruby.L1Cache_Controller.M.Store::total      4937624                      
system.ruby.L1Cache_Controller.M.RMW_Read |        5086     88.12%     88.12% |         197      3.41%     91.53% |         185      3.21%     94.73% |         304      5.27%    100.00%
system.ruby.L1Cache_Controller.M.RMW_Read::total         5772                      
system.ruby.L1Cache_Controller.M.Replacement |      243884     64.82%     64.82% |       43061     11.44%     76.26% |       44660     11.87%     88.13% |       44662     11.87%    100.00%
system.ruby.L1Cache_Controller.M.Replacement::total       376267                      
system.ruby.L1Cache_Controller.M.Other_GETS |         489     20.49%     20.49% |         541     22.67%     43.17% |         650     27.24%     70.41% |         706     29.59%    100.00%
system.ruby.L1Cache_Controller.M.Other_GETS::total         2386                      
system.ruby.L1Cache_Controller.M.Other_GETM |           9     18.37%     18.37% |          15     30.61%     48.98% |           9     18.37%     67.35% |          16     32.65%    100.00%
system.ruby.L1Cache_Controller.M.Other_GETM::total           49                      
system.ruby.L1Cache_Controller.M.ATOMICST |           0      0.00%      0.00% |           0      0.00%      0.00% |           3     60.00%     60.00% |           2     40.00%    100.00%
system.ruby.L1Cache_Controller.M.ATOMICST::total            5                      
system.ruby.L1Cache_Controller.IS_AD.Other_GETS |          11     14.10%     14.10% |          18     23.08%     37.18% |          27     34.62%     71.79% |          22     28.21%    100.00%
system.ruby.L1Cache_Controller.IS_AD.Other_GETS::total           78                      
system.ruby.L1Cache_Controller.IS_AD.Other_GETI |           0      0.00%      0.00% |           8     44.44%     44.44% |           6     33.33%     77.78% |           4     22.22%    100.00%
system.ruby.L1Cache_Controller.IS_AD.Other_GETI::total           18                      
system.ruby.L1Cache_Controller.IS_AD.Other_PUTM |           1     20.00%     20.00% |           2     40.00%     60.00% |           1     20.00%     80.00% |           1     20.00%    100.00%
system.ruby.L1Cache_Controller.IS_AD.Other_PUTM::total            5                      
system.ruby.L1Cache_Controller.IS_AD.OWN_GETS |      373511     62.76%     62.76% |       78921     13.26%     76.02% |       69883     11.74%     87.77% |       72810     12.23%    100.00%
system.ruby.L1Cache_Controller.IS_AD.OWN_GETS::total       595125                      
system.ruby.L1Cache_Controller.IS_AD.OWN_GETI |       20415     78.66%     78.66% |        1553      5.98%     84.65% |        1494      5.76%     90.41% |        2490      9.59%    100.00%
system.ruby.L1Cache_Controller.IS_AD.OWN_GETI::total        25952                      
system.ruby.L1Cache_Controller.IS_AD.Other_UPG |           0      0.00%      0.00% |           0      0.00%      0.00% |           0      0.00%      0.00% |           2    100.00%    100.00%
system.ruby.L1Cache_Controller.IS_AD.Other_UPG::total            2                      
system.ruby.L1Cache_Controller.IS_AD.ATOMICST |           0      0.00%      0.00% |           3     75.00%     75.00% |           1     25.00%    100.00% |           0      0.00%    100.00%
system.ruby.L1Cache_Controller.IS_AD.ATOMICST::total            4                      
system.ruby.L1Cache_Controller.IS_AD.ATOMICEN |           0      0.00%      0.00% |           1     50.00%     50.00% |           1     50.00%    100.00% |           0      0.00%    100.00%
system.ruby.L1Cache_Controller.IS_AD.ATOMICEN::total            2                      
system.ruby.L1Cache_Controller.IS_D.Other_GETS |          11     24.44%     24.44% |          15     33.33%     57.78% |          16     35.56%     93.33% |           3      6.67%    100.00%
system.ruby.L1Cache_Controller.IS_D.Other_GETS::total           45                      
system.ruby.L1Cache_Controller.IS_D.Other_GETM |           0      0.00%      0.00% |           2     40.00%     40.00% |           2     40.00%     80.00% |           1     20.00%    100.00%
system.ruby.L1Cache_Controller.IS_D.Other_GETM::total            5                      
system.ruby.L1Cache_Controller.IS_D.Other_PUTM |         528     21.86%     21.86% |         538     22.28%     44.14% |         830     34.37%     78.51% |         519     21.49%    100.00%
system.ruby.L1Cache_Controller.IS_D.Other_PUTM::total         2415                      
system.ruby.L1Cache_Controller.IS_D.Other_UPG |           1    100.00%    100.00% |           0      0.00%    100.00% |           0      0.00%    100.00% |           0      0.00%    100.00%
system.ruby.L1Cache_Controller.IS_D.Other_UPG::total            1                      
system.ruby.L1Cache_Controller.IS_D.ATOMICST |           2     28.57%     28.57% |           2     28.57%     57.14% |           2     28.57%     85.71% |           1     14.29%    100.00%
system.ruby.L1Cache_Controller.IS_D.ATOMICST::total            7                      
system.ruby.L1Cache_Controller.IS_D.Data |      393925     63.43%     63.43% |       80472     12.96%     76.38% |       71375     11.49%     87.88% |       75299     12.12%    100.00%
system.ruby.L1Cache_Controller.IS_D.Data::total       621071                      
system.ruby.L1Cache_Controller.IS_DI.Other_PUTM |           0      0.00%      0.00% |           2     40.00%     40.00% |           2     40.00%     80.00% |           1     20.00%    100.00%
system.ruby.L1Cache_Controller.IS_DI.Other_PUTM::total            5                      
system.ruby.L1Cache_Controller.IS_DI.ATOMICST |           0      0.00%      0.00% |           0      0.00%      0.00% |           0      0.00%      0.00% |           1    100.00%    100.00%
system.ruby.L1Cache_Controller.IS_DI.ATOMICST::total            1                      
system.ruby.L1Cache_Controller.IS_DI.Data |           1     16.67%     16.67% |           2     33.33%     50.00% |           2     33.33%     83.33% |           1     16.67%    100.00%
system.ruby.L1Cache_Controller.IS_DI.Data::total            6                      
system.ruby.L1Cache_Controller.IM_AD.Other_GETS |           2     50.00%     50.00% |           0      0.00%     50.00% |           0      0.00%     50.00% |           2     50.00%    100.00%
system.ruby.L1Cache_Controller.IM_AD.Other_GETS::total            4                      
system.ruby.L1Cache_Controller.IM_AD.Other_GETM |           1     50.00%     50.00% |           1     50.00%    100.00% |           0      0.00%    100.00% |           0      0.00%    100.00%
system.ruby.L1Cache_Controller.IM_AD.Other_GETM::total            2                      
system.ruby.L1Cache_Controller.IM_AD.OWN_GETM |      169718     76.46%     76.46% |       15701      7.07%     83.53% |       19183      8.64%     92.17% |       17374      7.83%    100.00%
system.ruby.L1Cache_Controller.IM_AD.OWN_GETM::total       221976                      
system.ruby.L1Cache_Controller.IM_AD.Other_UPG |           1    100.00%    100.00% |           0      0.00%    100.00% |           0      0.00%    100.00% |           0      0.00%    100.00%
system.ruby.L1Cache_Controller.IM_AD.Other_UPG::total            1                      
system.ruby.L1Cache_Controller.IM_AD.ATOMICST |           1    100.00%    100.00% |           0      0.00%    100.00% |           0      0.00%    100.00% |           0      0.00%    100.00%
system.ruby.L1Cache_Controller.IM_AD.ATOMICST::total            1                      
system.ruby.L1Cache_Controller.IM_D.Other_GETS |           1    100.00%    100.00% |           0      0.00%    100.00% |           0      0.00%    100.00% |           0      0.00%    100.00%
system.ruby.L1Cache_Controller.IM_D.Other_GETS::total            1                      
system.ruby.L1Cache_Controller.IM_D.Other_PUTM |          17     36.96%     36.96% |          11     23.91%     60.87% |          15     32.61%     93.48% |           3      6.52%    100.00%
system.ruby.L1Cache_Controller.IM_D.Other_PUTM::total           46                      
system.ruby.L1Cache_Controller.IM_D.ATOMICST |           1    100.00%    100.00% |           0      0.00%    100.00% |           0      0.00%    100.00% |           0      0.00%    100.00%
system.ruby.L1Cache_Controller.IM_D.ATOMICST::total            1                      
system.ruby.L1Cache_Controller.IM_D.ATOMICEN |           1    100.00%    100.00% |           0      0.00%    100.00% |           0      0.00%    100.00% |           0      0.00%    100.00%
system.ruby.L1Cache_Controller.IM_D.ATOMICEN::total            1                      
system.ruby.L1Cache_Controller.IM_D.Data |      169717     76.46%     76.46% |       15701      7.07%     83.53% |       19183      8.64%     92.17% |       17374      7.83%    100.00%
system.ruby.L1Cache_Controller.IM_D.Data::total       221975                      
system.ruby.L1Cache_Controller.IM_DS.Other_GETS |           1    100.00%    100.00% |           0      0.00%    100.00% |           0      0.00%    100.00% |           0      0.00%    100.00%
system.ruby.L1Cache_Controller.IM_DS.Other_GETS::total            1                      
system.ruby.L1Cache_Controller.IM_DS.Other_PUTM |           1    100.00%    100.00% |           0      0.00%    100.00% |           0      0.00%    100.00% |           0      0.00%    100.00%
system.ruby.L1Cache_Controller.IM_DS.Other_PUTM::total            1                      
system.ruby.L1Cache_Controller.IM_DS.Data |           1    100.00%    100.00% |           0      0.00%    100.00% |           0      0.00%    100.00% |           0      0.00%    100.00%
system.ruby.L1Cache_Controller.IM_DS.Data::total            1                      
system.ruby.L1Cache_Controller.MI_A.Load |           6     28.57%     28.57% |           0      0.00%     28.57% |           0      0.00%     28.57% |          15     71.43%    100.00%
system.ruby.L1Cache_Controller.MI_A.Load::total           21                      
system.ruby.L1Cache_Controller.MI_A.Replacement |          11     11.00%     11.00% |          33     33.00%     44.00% |          18     18.00%     62.00% |          38     38.00%    100.00%
system.ruby.L1Cache_Controller.MI_A.Replacement::total          100                      
system.ruby.L1Cache_Controller.MI_A.Other_GETS |           0      0.00%      0.00% |           0      0.00%      0.00% |           0      0.00%      0.00% |           2    100.00%    100.00%
system.ruby.L1Cache_Controller.MI_A.Other_GETS::total            2                      
system.ruby.L1Cache_Controller.MI_A.Other_GETM |           0      0.00%      0.00% |           0      0.00%      0.00% |           1    100.00%    100.00% |           0      0.00%    100.00%
system.ruby.L1Cache_Controller.MI_A.Other_GETM::total            1                      
system.ruby.L1Cache_Controller.MI_A.OWN_PUTM |      243895     64.81%     64.81% |       43077     11.45%     76.26% |       44670     11.87%     88.13% |       44678     11.87%    100.00%
system.ruby.L1Cache_Controller.MI_A.OWN_PUTM::total       376320                      
system.ruby.L1Cache_Controller.MS_A.Load |           7      9.86%      9.86% |          19     26.76%     36.62% |          39     54.93%     91.55% |           6      8.45%    100.00%
system.ruby.L1Cache_Controller.MS_A.Load::total           71                      
system.ruby.L1Cache_Controller.MS_A.Store |           3      6.98%      6.98% |           9     20.93%     27.91% |          15     34.88%     62.79% |          16     37.21%    100.00%
system.ruby.L1Cache_Controller.MS_A.Store::total           43                      
system.ruby.L1Cache_Controller.MS_A.Other_GETS |           8     25.81%     25.81% |           8     25.81%     51.61% |           6     19.35%     70.97% |           9     29.03%    100.00%
system.ruby.L1Cache_Controller.MS_A.Other_GETS::total           31                      
system.ruby.L1Cache_Controller.MS_A.Other_GETM |           2     50.00%     50.00% |           1     25.00%     75.00% |           1     25.00%    100.00% |           0      0.00%    100.00%
system.ruby.L1Cache_Controller.MS_A.Other_GETM::total            4                      
system.ruby.L1Cache_Controller.MS_A.OWN_PUTM |         488     20.48%     20.48% |         540     22.66%     43.14% |         649     27.23%     70.37% |         706     29.63%    100.00%
system.ruby.L1Cache_Controller.MS_A.OWN_PUTM::total         2383                      
system.ruby.L1Cache_Controller.MS_A.ATOMICST |           0      0.00%      0.00% |           0      0.00%      0.00% |           1    100.00%    100.00% |           0      0.00%    100.00%
system.ruby.L1Cache_Controller.MS_A.ATOMICST::total            1                      
system.ruby.L1Cache_Controller.SM_W.OWN_UPG |       74381     47.65%     47.65% |       27812     17.82%     65.46% |       25992     16.65%     82.11% |       27923     17.89%    100.00%
system.ruby.L1Cache_Controller.SM_W.OWN_UPG::total       156108                      
system.ruby.L1Cache_Controller.M_L.RMW_Write |        5410     82.24%     82.24% |         334      5.08%     87.32% |         359      5.46%     92.78% |         475      7.22%    100.00%
system.ruby.L1Cache_Controller.M_L.RMW_Write::total         6578                      
system.ruby.L1Cache_Controller.SM_WL.Other_GETS |           0      0.00%      0.00% |           0      0.00%      0.00% |           1    100.00%    100.00% |           0      0.00%    100.00%
system.ruby.L1Cache_Controller.SM_WL.Other_GETS::total            1                      
system.ruby.L1Cache_Controller.SM_WL.OWN_UPG |         279     37.05%     37.05% |         136     18.06%     55.11% |         170     22.58%     77.69% |         168     22.31%    100.00%
system.ruby.L1Cache_Controller.SM_WL.OWN_UPG::total          753                      
system.ruby.L1Cache_Controller.IM_DL.Other_GETS |           0      0.00%      0.00% |           0      0.00%      0.00% |           1    100.00%    100.00% |           0      0.00%    100.00%
system.ruby.L1Cache_Controller.IM_DL.Other_GETS::total            1                      
system.ruby.L1Cache_Controller.IM_DL.Other_GETM |           0      0.00%      0.00% |           0      0.00%      0.00% |           0      0.00%      0.00% |           1    100.00%    100.00%
system.ruby.L1Cache_Controller.IM_DL.Other_GETM::total            1                      
system.ruby.L1Cache_Controller.IM_DL.Other_PUTM |           3     42.86%     42.86% |           0      0.00%     42.86% |           2     28.57%     71.43% |           2     28.57%    100.00%
system.ruby.L1Cache_Controller.IM_DL.Other_PUTM::total            7                      
system.ruby.L1Cache_Controller.IM_DL.OWN_GETM |          45     84.91%     84.91% |           1      1.89%     86.79% |           4      7.55%     94.34% |           3      5.66%    100.00%
system.ruby.L1Cache_Controller.IM_DL.OWN_GETM::total           53                      
system.ruby.L1Cache_Controller.IM_DL.Data |          45     84.91%     84.91% |           1      1.89%     86.79% |           4      7.55%     94.34% |           3      5.66%    100.00%
system.ruby.L1Cache_Controller.IM_DL.Data::total           53                      

---------- End Simulation Statistics   ----------
